 84
K-infinitene [1,1,1,1,1,1|2,1,1,2,1,1](-1) EHMO: -80.30784124
  C      1.229756     4.970000     0.266667
  C      0.000000     5.680000     0.533333
  C     -1.229756     4.970000     0.533333
  C     -1.229756     3.550000     0.800000
  C     -0.000000     2.840000     0.800000
  C      1.229756     3.550000     0.266667
  C      6.148780     4.970000    -0.533333
  C      4.919024     5.680000    -0.533333
  C      3.689268     4.970000    -0.266667
  C      3.689268     3.550000    -0.266667
  C      4.919024     2.840000    -0.800000
  C      6.148780     3.550000    -0.800000
  C      7.378536     2.840000    -1.066667
  C      4.919024     1.420000     1.600000
  C      6.148780     0.710000     1.600000
  C      7.378536     1.420000    -1.066667
  C      3.689268     0.710000     1.600000
  C      3.689268    -0.710000     1.600000
  C      4.919024    -1.420000     1.600000
  C      6.148780    -0.710000     1.600000
  C      1.229756     0.710000     1.600000
  C      0.000000     1.420000     1.333333
  C     -1.229756     0.710000     1.333333
  C     -1.229756    -0.710000     1.600000
  C     -0.000000    -1.420000     1.600000
  C      1.229756    -0.710000     1.600000
  C     -2.459512     2.840000     1.066667
  C     -2.459512     1.420000     1.066667
  C      2.459512     5.680000    -0.000000
  C      2.459512     2.840000    -0.000000
  C      2.459512     1.420000     1.600000
  C      2.459512    -1.420000     1.600000
  C      3.689268     0.710000    -1.600000
  C      2.459512     1.420000    -1.600000
  C      1.229756     0.710000    -1.600000
  C      1.229756    -0.710000    -1.280000
  C      2.459512    -1.420000    -1.280000
  C      3.689268    -0.710000    -1.600000
  C      6.148780     0.710000    -1.600000
  C      4.919024     1.420000    -1.600000
  C      4.919024    -1.420000    -1.600000
  C      6.148780    -0.710000    -1.600000
  C      7.378536    -1.420000     0.960000
  C      4.919024    -2.840000     0.640000
  C      6.148780    -3.550000     0.640000
  C      7.378536    -2.840000     0.960000
  C      3.689268    -3.550000    -0.000000
  C      3.689268    -4.970000    -0.000000
  C      4.919024    -5.680000     0.320000
  C      6.148780    -4.970000     0.320000
  C      2.459512    -2.840000    -0.640000
  C      1.229756    -3.550000    -0.640000
  C      1.229756    -4.970000    -0.320000
  C      2.459512    -5.680000    -0.320000
  C     -0.000000    -1.420000    -0.960000
  C     -0.000000    -2.840000    -0.960000
  H      0.016080     6.751472     0.732805
  H     -2.165718     5.491810     0.333861
  H      7.084742     5.491810    -0.333861
  H      4.902944     6.751472    -0.732805
  H      8.298419     3.389662    -1.266139
  H      4.919024     2.510000     1.600000
  H      7.092748     1.255000     1.600000
  H      8.235301     0.857870    -0.695096
  H     -2.165718    -1.231810     1.799472
  H     -0.000000    -2.510000     1.600000
  H     -3.379394     3.389662     1.266139
  H     -3.379394     0.870338     0.867195
  H      2.459512     6.770000    -0.000000
  H      2.459512     1.750000    -0.000000
  H      2.459512     2.510000     1.600000
  H      2.459512    -2.510000     1.600000
  H      2.459512     2.510000    -1.600000
  H      0.297127     1.222108    -1.836746
  H      4.919024    -2.510000    -1.600000
  H      7.092748    -1.255000    -1.600000
  H      8.203476    -0.851442     0.530678
  H      8.288350    -3.391626     1.196746
  H      4.896209    -6.743734     0.556746
  H      7.081409    -5.482108     0.083254
  H      0.297127    -5.482108    -0.083254
  H      2.482328    -6.743734    -0.556746
  H     -0.909813    -0.868374    -0.723254
  H     -0.909813    -3.391626    -1.196746
