120
K-infinitene [1,2,1,1,2,1|1,3,2,1,3,2](0) EHMO: -114.31165778
  C      2.459512     7.100000    -0.000000
  C      1.229756     7.810000    -0.228571
  C      0.000000     7.100000    -0.228571
  C     -0.000000     5.680000    -0.457143
  C      1.229756     4.970000    -0.457143
  C      2.459512     5.680000    -0.000000
  C      4.919024     7.100000     0.228571
  C      3.689268     7.810000     0.228571
  C      3.689268     4.970000     0.457143
  C      4.919024     5.680000     0.457143
  C      6.148780     4.970000     0.685714
  C      3.689268     3.550000     0.914286
  C      4.919024     2.840000     0.914286
  C      6.148780     3.550000     0.685714
  C      3.689268     0.710000    -1.600000
  C      2.459512     1.420000    -1.600000
  C      1.229756     0.710000    -1.600000
  C      1.229756    -0.710000    -1.600000
  C      2.459512    -1.420000    -1.600000
  C      3.689268    -0.710000    -1.600000
  C      0.000000     1.420000    -1.371429
  C     -1.229756     0.710000    -1.371429
  C     -1.229756    -0.710000    -1.600000
  C     -0.000000    -1.420000    -1.600000
  C     -0.000000     2.840000    -0.914286
  C     -1.229756     3.550000    -0.914286
  C     -2.459512     2.840000    -1.142857
  C     -2.459512     1.420000    -1.142857
  C      2.459512     2.840000     1.142857
  C      4.919024     1.420000     1.142857
  C     -1.229756     4.970000    -0.685714
  C      1.229756     3.550000    -0.685714
  C      1.229756     0.710000     1.600000
  C      0.000000     1.420000     1.600000
  C     -1.229756     0.710000     1.600000
  C     -1.229756    -0.710000     1.454545
  C     -0.000000    -1.420000     1.454545
  C      1.229756    -0.710000     1.600000
  C      3.689268     0.710000     1.600000
  C      2.459512     1.420000     1.600000
  C      2.459512    -1.420000     1.600000
  C      3.689268    -0.710000     1.600000
  C      7.378536    -5.680000    -0.727273
  C      6.148780    -4.970000    -0.872727
  C      4.919024    -5.680000    -0.872727
  C      4.919024    -7.100000    -0.581818
  C      6.148780    -7.810000    -0.581818
  C      7.378536    -7.100000    -0.727273
  C      4.919024    -9.940000    -0.290909
  C      3.689268    -9.230000    -0.290909
  C      2.459512    -9.940000    -0.000000
  C      2.459512   -11.360000    -0.000000
  C      3.689268   -12.070000    -0.145455
  C      4.919024   -11.360000    -0.145455
  C      1.229756    -9.230000     0.290909
  C      0.000000    -9.940000     0.290909
  C     -0.000000   -11.360000     0.145455
  C      1.229756   -12.070000     0.145455
  C     -1.229756    -3.550000     1.163636
  C     -2.459512    -2.840000     1.163636
  C     -3.689268    -3.550000     1.018182
  C     -3.689268    -4.970000     1.018182
  C     -2.459512    -5.680000     0.872727
  C     -1.229756    -4.970000     0.872727
  C      4.919024    -1.420000    -1.309091
  C      2.459512    -2.840000    -1.309091
  C      3.689268    -3.550000    -1.163636
  C      4.919024    -2.840000    -1.163636
  C      6.148780    -3.550000    -1.018182
  C      3.689268    -4.970000    -1.018182
  C      3.689268    -7.810000    -0.436364
  C      6.148780    -9.230000    -0.436364
  C      1.229756    -7.810000     0.436364
  C      0.000000    -7.100000     0.581818
  C     -1.229756    -7.810000     0.581818
  C     -1.229756    -9.230000     0.436364
  C      0.000000    -5.680000     0.727273
  C     -2.459512    -7.100000     0.727273
  C     -2.459512    -1.420000     1.309091
  C     -0.000000    -2.840000     1.309091
  H      1.241677     8.886257    -0.400704
  H     -0.938026     7.627804    -0.056439
  H      5.857050     7.627804     0.056439
  H      3.677347     8.886257     0.400704
  H      7.074885     5.518452     0.857847
  H      7.074885     3.001548     0.513582
  H      4.633236     1.255000    -1.600000
  H      2.533211     2.481640    -1.835774
  H     -2.167782    -1.237804    -1.772133
  H     -0.000000    -2.510000    -1.600000
  H     -3.385617     3.388452    -1.314990
  H     -3.385617     0.871548    -0.970725
  H      1.509711     3.349041     0.978981
  H      5.834767     0.851969     0.978981
  H     -2.173724     5.515000    -0.685714
  H      2.186012     3.083005    -0.449940
  H     -0.000000     2.510000     1.600000
  H     -2.171276     1.247928     1.710783
  H      2.459512    -2.510000     1.600000
  H      4.633236    -1.255000     1.600000
  H      8.315156    -5.133583    -0.616490
  H      8.315156    -7.646417    -0.838055
  H      3.684367   -13.154345    -0.256237
  H      5.860545   -11.897928    -0.034672
  H     -0.941520   -11.897928     0.034672
  H      1.234657   -13.154345     0.256237
  H     -4.625888    -3.003583     0.907399
  H     -4.625888    -5.516417     1.128964
  H      5.851016    -0.865281    -1.200559
  H      1.513116    -3.369769    -1.200559
  H      7.092748    -3.005000    -1.018182
  H      2.745301    -5.515000    -1.018182
  H      2.807560    -7.212923    -0.669150
  H      7.092748    -9.775000    -0.436364
  H      2.111465    -7.212923     0.669150
  H     -2.173724    -9.775000     0.436364
  H      0.943968    -5.135000     0.727273
  H     -3.403480    -7.645000     0.727273
  H     -3.403480    -0.875000     1.309091
  H      0.943968    -3.385000     1.309091
