120
K-infinitene [1,1,2,1,1,2|2,3,1,2,3,1](2) EHMO: -114.09457918
  C      1.229756     4.970000    -0.266667
  C      0.000000     5.680000    -0.533333
  C     -1.229756     4.970000    -0.533333
  C     -1.229756     3.550000    -0.800000
  C     -0.000000     2.840000    -0.800000
  C      1.229756     3.550000    -0.266667
  C      6.148780     4.970000     0.533333
  C      4.919024     5.680000     0.533333
  C      3.689268     4.970000     0.266667
  C      3.689268     3.550000     0.266667
  C      4.919024     2.840000     0.800000
  C      6.148780     3.550000     0.800000
  C      7.378536     2.840000     1.066667
  C      4.919024     1.420000    -1.600000
  C      6.148780     0.710000    -1.600000
  C      7.378536     1.420000     1.066667
  C      3.689268     0.710000    -1.600000
  C      3.689268    -0.710000    -1.600000
  C      4.919024    -1.420000    -1.600000
  C      6.148780    -0.710000    -1.600000
  C      1.229756     0.710000    -1.600000
  C      0.000000     1.420000    -1.333333
  C     -1.229756     0.710000    -1.333333
  C     -1.229756    -0.710000    -1.600000
  C     -0.000000    -1.420000    -1.600000
  C      1.229756    -0.710000    -1.600000
  C     -2.459512     2.840000    -1.066667
  C     -2.459512     1.420000    -1.066667
  C      2.459512     5.680000     0.000000
  C      2.459512     2.840000     0.000000
  C      2.459512     1.420000    -1.600000
  C      2.459512    -1.420000    -1.600000
  C      6.148780     0.710000     1.600000
  C      4.919024     1.420000     1.600000
  C      3.689268     0.710000     1.600000
  C      3.689268    -0.710000     1.600000
  C      4.919024    -1.420000     1.600000
  C      6.148780    -0.710000     1.600000
  C     11.067805     0.710000    -1.066667
  C      9.838049     1.420000    -1.066667
  C      8.608293     0.710000    -1.200000
  C      8.608293    -0.710000    -1.200000
  C      9.838049    -1.420000    -0.933333
  C     11.067805    -0.710000    -0.933333
  C     14.757073    -5.680000    -0.266667
  C     13.527317    -4.970000    -0.400000
  C     12.297561    -5.680000    -0.400000
  C     12.297561    -7.100000    -0.133333
  C     13.527317    -7.810000    -0.133333
  C     14.757073    -7.100000    -0.266667
  C     11.067805    -7.810000     0.133333
  C     11.067805    -9.230000     0.133333
  C     12.297561    -9.940000     0.000000
  C     13.527317    -9.230000     0.000000
  C      8.608293    -7.810000     0.400000
  C      7.378536    -7.100000     0.666667
  C      6.148780    -7.810000     0.666667
  C      6.148780    -9.230000     0.533333
  C      7.378536    -9.940000     0.533333
  C      8.608293    -9.230000     0.400000
  C      2.459512    -1.420000     1.333333
  C      2.459512    -2.840000     1.333333
  C      3.689268    -3.550000     1.200000
  C      4.919024    -2.840000     1.200000
  C      7.378536     1.420000    -1.333333
  C      7.378536    -1.420000    -1.333333
  C     12.297561    -1.420000    -0.800000
  C      9.838049    -2.840000    -0.800000
  C     11.067805    -3.550000    -0.666667
  C     12.297561    -2.840000    -0.666667
  C     13.527317    -3.550000    -0.533333
  C     11.067805    -4.970000    -0.533333
  C      9.838049    -7.100000     0.266667
  C      9.838049    -9.940000     0.266667
  C      7.378536    -5.680000     0.800000
  C      6.148780    -4.970000     0.933333
  C      4.919024    -5.680000     0.933333
  C      4.919024    -7.100000     0.800000
  C      6.148780    -3.550000     1.066667
  C      3.689268    -4.970000     1.066667
  H      0.016080     6.751472    -0.732805
  H     -2.165718     5.491810    -0.333861
  H      7.084742     5.491810     0.333861
  H      4.902944     6.751472     0.732805
  H      8.298419     3.389662     1.266139
  H      4.919024     2.510000    -1.600000
  H      8.235301     0.857870     0.695096
  H      4.919024    -2.510000    -1.600000
  H     -2.165718    -1.231810    -1.799472
  H     -0.000000    -2.510000    -1.600000
  H     -3.379394     3.389662    -1.266139
  H     -3.379394     0.870338    -0.867195
  H      2.459512     6.770000     0.000000
  H      2.459512     1.750000     0.000000
  H      2.459512     2.510000    -1.600000
  H      2.459512    -2.510000    -1.600000
  H      2.745301     1.255000     1.600000
  H      7.092748    -1.255000     1.600000
  H     12.009712     1.249047    -1.168343
  H      9.833924     2.505240    -0.964990
  H     15.694855    -5.133808    -0.164990
  H     15.694855    -7.646192    -0.368343
  H     12.293436   -11.025240    -0.101677
  H     14.469224    -9.769047     0.101677
  H      5.206873    -9.769047     0.431657
  H      7.382661   -11.025240     0.635010
  H      1.539630    -0.870338     1.133861
  H      1.521730    -3.386192     1.435010
  H      7.366373     2.505341    -1.233401
  H      7.366373    -2.505341    -1.233401
  H     13.241528    -0.875000    -0.800000
  H      8.894081    -3.385000    -0.800000
  H     14.471284    -3.005000    -0.533333
  H     10.110266    -5.404247    -0.820820
  H      9.735348    -6.053623     0.554153
  H      9.838049   -11.030000     0.266667
  H      8.322504    -5.135000     0.800000
  H      3.975057    -7.645000     0.800000
  H      7.092748    -3.005000     1.066667
  H      2.745301    -5.515000     1.066667
