120
K-infinitene [1,1,2,1,1,2|1,2,3,1,2,3](2) EHMO: -114.07783524
  C      1.229756     4.970000    -0.266667
  C      0.000000     5.680000    -0.533333
  C     -1.229756     4.970000    -0.533333
  C     -1.229756     3.550000    -0.800000
  C     -0.000000     2.840000    -0.800000
  C      1.229756     3.550000    -0.266667
  C      6.148780     4.970000     0.533333
  C      4.919024     5.680000     0.533333
  C      3.689268     4.970000     0.266667
  C      3.689268     3.550000     0.266667
  C      4.919024     2.840000     0.800000
  C      6.148780     3.550000     0.800000
  C      7.378536     2.840000     1.066667
  C      4.919024     1.420000    -1.600000
  C      6.148780     0.710000    -1.600000
  C      7.378536     1.420000     1.066667
  C      3.689268     0.710000    -1.600000
  C      3.689268    -0.710000    -1.600000
  C      4.919024    -1.420000    -1.600000
  C      6.148780    -0.710000    -1.600000
  C      1.229756     0.710000    -1.600000
  C      0.000000     1.420000    -1.333333
  C     -1.229756     0.710000    -1.333333
  C     -1.229756    -0.710000    -1.600000
  C     -0.000000    -1.420000    -1.600000
  C      1.229756    -0.710000    -1.600000
  C     -2.459512     2.840000    -1.066667
  C     -2.459512     1.420000    -1.066667
  C      2.459512     5.680000     0.000000
  C      2.459512     2.840000     0.000000
  C      2.459512     1.420000    -1.600000
  C      2.459512    -1.420000    -1.600000
  C      6.148780     0.710000     1.600000
  C      4.919024     1.420000     1.600000
  C      3.689268     0.710000     1.600000
  C      3.689268    -0.710000     1.600000
  C      4.919024    -1.420000     1.600000
  C      6.148780    -0.710000     1.600000
  C      8.608293     0.710000    -1.333333
  C      7.378536     1.420000    -1.333333
  C      7.378536    -1.420000    -1.200000
  C      8.608293    -0.710000    -1.200000
  C     11.067805    -3.550000    -0.800000
  C      9.838049    -2.840000    -0.933333
  C      8.608293    -3.550000    -0.933333
  C      8.608293    -4.970000    -0.666667
  C      9.838049    -5.680000    -0.666667
  C     11.067805    -4.970000    -0.800000
  C      7.378536    -9.940000    -0.133333
  C      6.148780    -9.230000    -0.133333
  C      4.919024    -9.940000     0.133333
  C      4.919024   -11.360000     0.133333
  C      6.148780   -12.070000     0.000000
  C      7.378536   -11.360000     0.000000
  C      3.689268    -9.230000     0.400000
  C      2.459512    -9.940000     0.400000
  C      2.459512   -11.360000     0.266667
  C      3.689268   -12.070000     0.266667
  C      2.459512    -5.680000     0.933333
  C      1.229756    -4.970000     0.933333
  C      0.000000    -5.680000     0.800000
  C     -0.000000    -7.100000     0.800000
  C      1.229756    -7.810000     0.666667
  C      2.459512    -7.100000     0.666667
  C      9.838049    -1.420000    -1.066667
  C      7.378536    -2.840000    -1.066667
  C      7.378536    -5.680000    -0.533333
  C      7.378536    -7.100000    -0.400000
  C      8.608293    -7.810000    -0.400000
  C      9.838049    -7.100000    -0.533333
  C      6.148780    -7.810000    -0.266667
  C      8.608293    -9.230000    -0.266667
  C      3.689268    -7.810000     0.533333
  C      1.229756    -9.230000     0.533333
  C      3.689268    -3.550000     1.200000
  C      2.459512    -2.840000     1.200000
  C      1.229756    -3.550000     1.066667
  C      3.689268    -4.970000     1.066667
  C      2.459512    -1.420000     1.333333
  C      4.919024    -2.840000     1.333333
  H      0.016080     6.751472    -0.732805
  H     -2.165718     5.491810    -0.333861
  H      7.084742     5.491810     0.333861
  H      4.902944     6.751472     0.732805
  H      8.298419     3.389662     1.266139
  H      4.919024     2.510000    -1.600000
  H      8.235301     0.857870     0.695096
  H      4.919024    -2.510000    -1.600000
  H     -2.165718    -1.231810    -1.799472
  H     -0.000000    -2.510000    -1.600000
  H     -3.379394     3.389662    -1.266139
  H     -3.379394     0.870338    -0.867195
  H      2.459512     6.770000     0.000000
  H      2.459512     1.750000     0.000000
  H      2.459512     2.510000    -1.600000
  H      2.459512    -2.510000    -1.600000
  H      2.745301     1.255000     1.600000
  H      7.092748    -1.255000     1.600000
  H      9.550200     1.249047    -1.435010
  H      7.362457     2.491472    -1.133861
  H     12.005587    -3.003808    -0.698323
  H     12.005587    -5.516192    -0.901677
  H      6.144655   -13.155240    -0.101677
  H      8.320444   -11.899047     0.101677
  H      1.517605   -11.899047     0.164990
  H      3.693393   -13.155240     0.368343
  H     -0.937783    -5.133808     0.698323
  H     -0.937783    -7.646192     0.901677
  H     10.782016    -0.875000    -1.066667
  H      6.434569    -3.385000    -1.066667
  H      6.434569    -5.135000    -0.533333
  H     10.782016    -7.645000    -0.533333
  H      5.293942    -7.197871    -0.554153
  H      9.552260    -9.775000    -0.266667
  H      4.544107    -7.197871     0.820820
  H      0.285788    -9.775000     0.533333
  H      0.285788    -3.005000     1.066667
  H      4.633236    -5.515000     1.066667
  H      1.525661    -0.866796     1.233401
  H      5.865039    -3.372137     1.233401
