120
K-infinitene [1,1,2,1,1,2|1,2,3,1,2,3](1) EHMO: -114.32172312
  C      1.229756     4.970000    -0.266667
  C      0.000000     5.680000    -0.533333
  C     -1.229756     4.970000    -0.533333
  C     -1.229756     3.550000    -0.800000
  C     -0.000000     2.840000    -0.800000
  C      1.229756     3.550000    -0.266667
  C      6.148780     4.970000     0.533333
  C      4.919024     5.680000     0.533333
  C      3.689268     4.970000     0.266667
  C      3.689268     3.550000     0.266667
  C      4.919024     2.840000     0.800000
  C      6.148780     3.550000     0.800000
  C      7.378536     2.840000     1.066667
  C      4.919024     1.420000    -1.600000
  C      6.148780     0.710000    -1.600000
  C      7.378536     1.420000     1.066667
  C      3.689268     0.710000    -1.600000
  C      3.689268    -0.710000    -1.600000
  C      4.919024    -1.420000    -1.600000
  C      6.148780    -0.710000    -1.600000
  C      1.229756     0.710000    -1.600000
  C      0.000000     1.420000    -1.333333
  C     -1.229756     0.710000    -1.333333
  C     -1.229756    -0.710000    -1.600000
  C     -0.000000    -1.420000    -1.600000
  C      1.229756    -0.710000    -1.600000
  C     -2.459512     2.840000    -1.066667
  C     -2.459512     1.420000    -1.066667
  C      2.459512     5.680000     0.000000
  C      2.459512     2.840000     0.000000
  C      2.459512     1.420000    -1.600000
  C      2.459512    -1.420000    -1.600000
  C      3.689268     0.710000     1.600000
  C      2.459512     1.420000     1.600000
  C      1.229756     0.710000     1.600000
  C      1.229756    -0.710000     1.454545
  C      2.459512    -1.420000     1.454545
  C      3.689268    -0.710000     1.600000
  C      6.148780     0.710000     1.600000
  C      4.919024     1.420000     1.600000
  C      4.919024    -1.420000     1.600000
  C      6.148780    -0.710000     1.600000
  C      8.608293    -3.550000    -1.018182
  C      7.378536    -2.840000    -1.163636
  C      6.148780    -3.550000    -1.163636
  C      6.148780    -4.970000    -0.872727
  C      7.378536    -5.680000    -0.872727
  C      8.608293    -4.970000    -1.018182
  C      4.919024    -9.940000    -0.290909
  C      3.689268    -9.230000    -0.290909
  C      2.459512    -9.940000    -0.000000
  C      2.459512   -11.360000    -0.000000
  C      3.689268   -12.070000    -0.145455
  C      4.919024   -11.360000    -0.145455
  C      1.229756    -9.230000     0.290909
  C     -0.000000    -9.940000     0.290909
  C     -0.000000   -11.360000     0.145455
  C      1.229756   -12.070000     0.145455
  C     -0.000000    -5.680000     0.872727
  C     -1.229756    -4.970000     0.872727
  C     -2.459512    -5.680000     0.727273
  C     -2.459512    -7.100000     0.727273
  C     -1.229756    -7.810000     0.581818
  C     -0.000000    -7.100000     0.581818
  C      7.378536    -1.420000    -1.309091
  C      4.919024    -2.840000    -1.309091
  C      4.919024    -5.680000    -0.727273
  C      4.919024    -7.100000    -0.581818
  C      6.148780    -7.810000    -0.581818
  C      7.378536    -7.100000    -0.727273
  C      3.689268    -7.810000    -0.436364
  C      6.148780    -9.230000    -0.436364
  C      1.229756    -7.810000     0.436364
  C     -1.229756    -9.230000     0.436364
  C      1.229756    -3.550000     1.163636
  C     -0.000000    -2.840000     1.163636
  C     -1.229756    -3.550000     1.018182
  C      1.229756    -4.970000     1.018182
  C     -0.000000    -1.420000     1.309091
  C      2.459512    -2.840000     1.309091
  H      0.016080     6.751472    -0.732805
  H     -2.165718     5.491810    -0.333861
  H      7.084742     5.491810     0.333861
  H      4.902944     6.751472     0.732805
  H      8.298419     3.389662     1.266139
  H      4.919024     2.510000    -1.600000
  H      7.092748     1.255000    -1.600000
  H      8.235301     0.857870     0.695096
  H     -2.165718    -1.231810    -1.799472
  H     -0.000000    -2.510000    -1.600000
  H     -3.379394     3.389662    -1.266139
  H     -3.379394     0.870338    -0.867195
  H      2.459512     6.770000     0.000000
  H      2.459512     1.750000     0.000000
  H      2.459512     2.510000    -1.600000
  H      2.459512    -2.510000    -1.600000
  H      2.459512     2.510000     1.600000
  H      0.288236     1.247928     1.710783
  H      4.919024    -2.510000     1.600000
  H      7.092748    -1.255000     1.600000
  H      9.544912    -3.003583    -0.907399
  H      9.544912    -5.516417    -1.128964
  H      3.684367   -13.154345    -0.256237
  H      5.860545   -11.897928    -0.034672
  H     -0.941520   -11.897928     0.034672
  H      1.234657   -13.154345     0.256237
  H     -3.396132    -5.133583     0.616490
  H     -3.396132    -7.646417     0.838055
  H      8.310528    -0.865281    -1.200559
  H      3.972628    -3.369769    -1.200559
  H      3.975057    -5.135000    -0.727273
  H      8.322504    -7.645000    -0.727273
  H      2.807560    -7.212923    -0.669150
  H      7.092748    -9.775000    -0.436364
  H      2.111465    -7.212923     0.669150
  H     -2.173724    -9.775000     0.436364
  H     -2.173724    -3.005000     1.018182
  H      2.173724    -5.515000     1.018182
  H     -0.943968    -0.875000     1.309091
  H      3.403480    -3.385000     1.309091
