120
K-infinitene [1,2,1,1,2,1|3,2,1,3,2,1](-2) EHMO: -114.32697630
  C      0.000000     7.100000     0.355556
  C     -1.229756     7.810000     0.533333
  C     -2.459512     7.100000     0.533333
  C     -2.459512     5.680000     0.711111
  C     -1.229756     4.970000     0.711111
  C      0.000000     5.680000     0.355556
  C      7.378536     7.100000    -0.533333
  C      6.148780     7.810000    -0.533333
  C      4.919024     7.100000    -0.355556
  C      4.919024     5.680000    -0.355556
  C      6.148780     4.970000    -0.711111
  C      7.378536     5.680000    -0.711111
  C      9.838049     2.840000    -1.244444
  C      8.608293     3.550000    -1.066667
  C      7.378536     2.840000    -1.066667
  C      7.378536     1.420000     1.600000
  C      8.608293     0.710000     1.600000
  C      9.838049     1.420000    -1.244444
  C      6.148780     0.710000     1.600000
  C      6.148780    -0.710000     1.600000
  C      7.378536    -1.420000     1.600000
  C      8.608293    -0.710000     1.600000
  C      1.229756     0.710000     1.600000
  C      0.000000     1.420000     1.422222
  C     -1.229756     0.710000     1.422222
  C     -1.229756    -0.710000     1.600000
  C      0.000000    -1.420000     1.600000
  C      1.229756    -0.710000     1.600000
  C     -3.689268     4.970000     0.888889
  C     -3.689268     3.550000     0.888889
  C     -2.459512     2.840000     1.066667
  C     -1.229756     3.550000     1.066667
  C      2.459512     7.100000    -0.000000
  C      1.229756     7.810000     0.177778
  C      1.229756     4.970000     0.177778
  C      2.459512     5.680000    -0.000000
  C      3.689268     7.810000    -0.177778
  C      3.689268     4.970000    -0.177778
  C      8.608293     4.970000    -0.888889
  C      6.148780     3.550000    -0.888889
  C      4.919024     1.420000     1.600000
  C      3.689268     0.710000     1.600000
  C      3.689268    -0.710000     1.600000
  C      4.919024    -1.420000     1.600000
  C      2.459512     1.420000     1.600000
  C      2.459512    -1.420000     1.600000
  C      0.000000     2.840000     1.244444
  C     -2.459512     1.420000     1.244444
  C      6.148780     0.710000    -1.600000
  C      4.919024     1.420000    -1.600000
  C      3.689268     0.710000    -1.600000
  C      3.689268    -0.710000    -1.371429
  C      4.919024    -1.420000    -1.371429
  C      6.148780    -0.710000    -1.600000
  C      8.608293     0.710000    -1.600000
  C      7.378536     1.420000    -1.600000
  C      7.378536    -1.420000    -1.600000
  C      8.608293    -0.710000    -1.600000
  C     11.067805    -3.550000     0.685714
  C      9.838049    -2.840000     0.914286
  C      8.608293    -3.550000     0.914286
  C      8.608293    -4.970000     0.457143
  C      9.838049    -5.680000     0.457143
  C     11.067805    -4.970000     0.685714
  C      7.378536    -5.680000     0.000000
  C      7.378536    -7.100000     0.000000
  C      8.608293    -7.810000     0.228571
  C      9.838049    -7.100000     0.228571
  C      6.148780    -4.970000    -0.457143
  C      4.919024    -5.680000    -0.457143
  C      4.919024    -7.100000    -0.228571
  C      6.148780    -7.810000    -0.228571
  C      2.459512    -1.420000    -1.142857
  C      2.459512    -2.840000    -1.142857
  C      3.689268    -3.550000    -0.914286
  C      4.919024    -2.840000    -0.914286
  C      9.838049    -1.420000     1.142857
  C      7.378536    -2.840000     1.142857
  C      6.148780    -3.550000    -0.685714
  C      3.689268    -4.970000    -0.685714
  H     -1.222472     8.891597     0.668218
  H     -3.399845     7.634491     0.398449
  H      8.318869     7.634491    -0.398449
  H      6.141497     8.891597    -0.668218
  H     10.771098     3.387107    -1.379329
  H      7.378536     2.510000     1.600000
  H      9.552260     1.255000     1.600000
  H     10.740337     0.866900    -0.983569
  H     -2.170089    -1.244491     1.734885
  H     -0.000000    -2.510000     1.600000
  H     -4.622317     5.517107     1.023774
  H     -4.622317     3.002893     0.754004
  H      1.229756     8.900000     0.177778
  H      1.275881     3.894670     0.005624
  H      3.689268     8.900000    -0.177778
  H      3.689268     3.880000    -0.177778
  H      9.552260     5.515000    -0.888889
  H      5.190139     3.149576    -0.559089
  H      4.919024     2.510000     1.600000
  H      4.919024    -2.510000     1.600000
  H      2.459512     2.510000     1.600000
  H      2.459512    -2.510000     1.600000
  H      0.954326     3.337720     1.416598
  H     -3.403480     0.875000     1.244444
  H      4.786481     2.450419    -1.929800
  H      2.751242     1.237804    -1.772133
  H      7.452235    -2.481640    -1.835774
  H      9.552260    -1.255000    -1.600000
  H     11.993910    -3.001548     0.513582
  H     11.993910    -5.518452     0.857847
  H      8.596372    -8.886257     0.400704
  H     10.776075    -7.627804     0.056439
  H      3.980998    -7.627804    -0.056439
  H      6.160701    -8.886257    -0.400704
  H      1.533407    -0.871548    -0.970725
  H      1.533407    -3.388452    -1.314990
  H     10.753791    -0.851969     0.978981
  H      6.428735    -3.349041     0.978981
  H      7.105037    -3.083005    -0.449940
  H      2.745301    -5.515000    -0.685714
