 84
K-infinitene [1,1,1,1,1,1|1,1,2,1,1,2](1) EHMO: -80.11580272
  C      1.229756     4.970000     0.000000
  C      0.000000     5.680000    -0.320000
  C     -1.229756     4.970000    -0.320000
  C     -1.229756     3.550000    -0.640000
  C     -0.000000     2.840000    -0.640000
  C      1.229756     3.550000     0.000000
  C      3.689268     4.970000     0.320000
  C      2.459512     5.680000     0.320000
  C      2.459512     2.840000     0.640000
  C      3.689268     3.550000     0.640000
  C      4.919024     2.840000     0.960000
  C      2.459512     1.420000    -1.600000
  C      3.689268     0.710000    -1.600000
  C      4.919024     1.420000     0.960000
  C      1.229756     0.710000    -1.600000
  C      1.229756    -0.710000    -1.600000
  C      2.459512    -1.420000    -1.600000
  C      3.689268    -0.710000    -1.600000
  C      0.000000     1.420000    -1.280000
  C     -1.229756     0.710000    -1.280000
  C     -1.229756    -0.710000    -1.600000
  C     -0.000000    -1.420000    -1.600000
  C     -2.459512     2.840000    -0.960000
  C     -2.459512     1.420000    -0.960000
  C      3.689268     0.710000     1.600000
  C      2.459512     1.420000     1.600000
  C      1.229756     0.710000     1.600000
  C      1.229756    -0.710000     1.600000
  C      2.459512    -1.420000     1.600000
  C      3.689268    -0.710000     1.600000
  C      6.148780     0.710000    -1.200000
  C      4.919024     1.420000    -1.200000
  C      4.919024    -1.420000    -1.000000
  C      6.148780    -0.710000    -1.000000
  C      7.378536    -1.420000    -0.800000
  C      4.919024    -2.840000    -0.600000
  C      6.148780    -3.550000    -0.600000
  C      7.378536    -2.840000    -0.800000
  C      4.919024    -5.680000    -0.200000
  C      3.689268    -4.970000    -0.200000
  C      2.459512    -5.680000     0.200000
  C      2.459512    -7.100000     0.200000
  C      3.689268    -7.810000     0.000000
  C      4.919024    -7.100000     0.000000
  C      1.229756    -4.970000     0.600000
  C      0.000000    -5.680000     0.600000
  C      0.000000    -7.100000     0.400000
  C      1.229756    -7.810000     0.400000
  C      1.229756    -3.550000     1.000000
  C      0.000000    -2.840000     1.000000
  C     -1.229756    -3.550000     0.800000
  C     -1.229756    -4.970000     0.800000
  C      3.689268    -3.550000    -0.400000
  C      6.148780    -4.970000    -0.400000
  C      0.000000    -1.420000     1.200000
  C      2.459512    -2.840000     1.200000
  H      0.022816     6.743734    -0.556746
  H     -2.162385     5.482108    -0.083254
  H      4.621897     5.482108     0.083254
  H      2.436696     6.743734     0.556746
  H      5.828837     3.391626     1.196746
  H      2.459512     2.510000    -1.600000
  H      5.743964     0.851442     0.530678
  H      2.437336    -2.505789    -1.693114
  H     -2.162385    -1.222108    -1.836746
  H     -0.000000    -2.510000    -1.600000
  H     -3.369325     3.391626    -1.196746
  H     -3.369325     0.868374    -0.723254
  H      0.285788     1.255000     1.600000
  H      4.633236    -1.255000     1.600000
  H      7.088169     1.241755    -1.351283
  H      4.884308     2.470097    -0.909844
  H      8.308744    -0.872343    -0.648717
  H      8.308744    -3.387657    -0.951283
  H      3.680087    -8.889411    -0.151283
  H      5.858413    -7.631755     0.151283
  H     -0.939388    -7.631755     0.248717
  H      1.238937    -8.889411     0.551283
  H     -2.159963    -3.002343     0.648717
  H     -2.159963    -5.517657     0.951283
  H      2.737859    -3.026310    -0.306886
  H      7.092748    -5.515000    -0.400000
  H     -0.921963    -0.857083     1.054370
  H      3.407994    -3.356985     1.054370
