 84
K-infinitene [1,1,1,1,1,1|1,1,2,1,1,2](-1) EHMO: -80.19368658
  C      1.229756     4.970000     0.000000
  C      0.000000     5.680000    -0.320000
  C     -1.229756     4.970000    -0.320000
  C     -1.229756     3.550000    -0.640000
  C     -0.000000     2.840000    -0.640000
  C      1.229756     3.550000     0.000000
  C      3.689268     4.970000     0.320000
  C      2.459512     5.680000     0.320000
  C      2.459512     2.840000     0.640000
  C      3.689268     3.550000     0.640000
  C      4.919024     2.840000     0.960000
  C      2.459512     1.420000     1.280000
  C      3.689268     0.710000     1.280000
  C      4.919024     1.420000     0.960000
  C      1.229756     0.710000    -1.600000
  C      1.229756    -0.710000    -1.600000
  C      2.459512    -1.420000     1.600000
  C      3.689268    -0.710000     1.600000
  C      0.000000     1.420000    -1.600000
  C     -1.229756     0.710000    -1.600000
  C     -1.229756    -0.710000    -1.600000
  C     -0.000000    -1.420000    -1.600000
  C     -2.459512     2.840000    -0.960000
  C     -2.459512     1.420000    -0.960000
  C     -1.229756     0.710000     1.600000
  C     -2.459512     1.420000     1.600000
  C     -3.689268     0.710000     1.600000
  C     -3.689268    -0.710000     1.371429
  C     -2.459512    -1.420000     1.371429
  C     -1.229756    -0.710000     1.600000
  C      1.229756     0.710000     1.600000
  C      0.000000     1.420000     1.600000
  C      0.000000    -1.420000     1.600000
  C      1.229756    -0.710000     1.600000
  C      2.459512    -1.420000    -1.142857
  C      0.000000    -2.840000    -0.914286
  C      1.229756    -3.550000    -0.914286
  C      2.459512    -2.840000    -1.142857
  C      0.000000    -5.680000    -0.457143
  C     -1.229756    -4.970000    -0.457143
  C     -2.459512    -5.680000    -0.000000
  C     -2.459512    -7.100000    -0.000000
  C     -1.229756    -7.810000    -0.228571
  C     -0.000000    -7.100000    -0.228571
  C     -3.689268    -4.970000     0.457143
  C     -4.919024    -5.680000     0.457143
  C     -4.919024    -7.100000     0.228571
  C     -3.689268    -7.810000     0.228571
  C     -3.689268    -3.550000     0.914286
  C     -4.919024    -2.840000     0.914286
  C     -6.148780    -3.550000     0.685714
  C     -6.148780    -4.970000     0.685714
  C     -1.229756    -3.550000    -0.685714
  C      1.229756    -4.970000    -0.685714
  C     -4.919024    -1.420000     1.142857
  C     -2.459512    -2.840000     1.142857
  H      0.022816     6.743734    -0.556746
  H     -2.162385     5.482108    -0.083254
  H      4.621897     5.482108     0.083254
  H      2.436696     6.743734     0.556746
  H      5.828837     3.391626     1.196746
  H      5.828837     0.868374     0.723254
  H      2.173724     1.255000    -1.600000
  H      2.459512    -2.510000     1.600000
  H      4.621897    -1.222108     1.836746
  H     -2.173724    -1.255000    -1.600000
  H     -3.369325     3.391626    -1.196746
  H     -3.284451     0.851442    -0.530678
  H     -2.459512     2.510000     1.600000
  H     -4.627294     1.237804     1.772133
  H     -0.000000     2.510000     1.600000
  H      0.000000    -2.510000     1.600000
  H      3.337199    -0.862044    -0.816590
  H      3.385617    -3.388452    -1.314990
  H     -1.241677    -8.886257    -0.400704
  H      0.938026    -7.627804    -0.056439
  H     -5.857050    -7.627804     0.056439
  H     -3.677347    -8.886257     0.400704
  H     -7.074885    -3.001548     0.513582
  H     -7.074885    -5.518452     0.857847
  H     -2.173724    -3.005000    -0.685714
  H      2.173724    -5.515000    -0.685714
  H     -5.862992    -0.875000     1.142857
  H     -1.515544    -3.385000     1.142857
