120
K-infinitene [1,2,1,1,2,1|2,1,3,2,1,3](0) EHMO: -114.30729832
  C      3.689268     9.230000     0.160000
  C      2.459512     9.940000     0.320000
  C      1.229756     9.230000     0.320000
  C      1.229756     7.810000     0.480000
  C      2.459512     7.100000     0.480000
  C      3.689268     7.810000     0.160000
  C      8.608293     9.230000    -0.320000
  C      7.378536     9.940000    -0.320000
  C      6.148780     9.230000    -0.160000
  C      6.148780     7.810000    -0.160000
  C      7.378536     7.100000    -0.480000
  C      8.608293     7.810000    -0.480000
  C      9.838049     7.100000    -0.640000
  C      7.378536     5.680000    -0.800000
  C      8.608293     4.970000    -0.800000
  C      9.838049     5.680000    -0.640000
  C      6.148780     0.710000    -1.440000
  C      4.919024     1.420000    -1.440000
  C      3.689268     0.710000     1.600000
  C      3.689268    -0.710000     1.600000
  C      4.919024    -1.420000    -1.600000
  C      6.148780    -0.710000    -1.600000
  C      1.229756     0.710000     1.600000
  C      0.000000     1.420000     1.440000
  C     -1.229756     0.710000     1.440000
  C     -1.229756    -0.710000     1.600000
  C      0.000000    -1.420000     1.600000
  C      1.229756    -0.710000     1.600000
  C      0.000000     2.840000     1.120000
  C     -1.229756     3.550000     1.120000
  C     -2.459512     2.840000     1.280000
  C     -2.459512     1.420000     1.280000
  C      4.919024     9.940000    -0.000000
  C      4.919024     7.100000    -0.000000
  C      6.148780     4.970000    -0.960000
  C      6.148780     3.550000    -1.120000
  C      7.378536     2.840000    -1.120000
  C      8.608293     3.550000    -0.960000
  C      4.919024     2.840000    -1.280000
  C      7.378536     1.420000    -1.280000
  C      2.459512     1.420000     1.600000
  C      2.459512    -1.420000     1.600000
  C      1.229756     4.970000     0.800000
  C      0.000000     5.680000     0.800000
  C     -1.229756     4.970000     0.960000
  C      1.229756     3.550000     0.960000
  C      0.000000     7.100000     0.640000
  C      2.459512     5.680000     0.640000
  C      1.229756     0.710000    -1.600000
  C     -0.000000     1.420000    -1.600000
  C     -1.229756     0.710000    -1.600000
  C     -1.229756    -0.710000    -1.371429
  C     -0.000000    -1.420000    -1.371429
  C      1.229756    -0.710000    -1.600000
  C      3.689268     0.710000    -1.600000
  C      2.459512     1.420000    -1.600000
  C      2.459512    -1.420000    -1.600000
  C      3.689268    -0.710000    -1.600000
  C      6.148780    -3.550000     0.685714
  C      4.919024    -2.840000     0.914286
  C      3.689268    -3.550000     0.914286
  C      3.689268    -4.970000     0.457143
  C      4.919024    -5.680000     0.457143
  C      6.148780    -4.970000     0.685714
  C      2.459512    -5.680000     0.000000
  C      2.459512    -7.100000     0.000000
  C      3.689268    -7.810000     0.228571
  C      4.919024    -7.100000     0.228571
  C      1.229756    -4.970000    -0.457143
  C     -0.000000    -5.680000    -0.457143
  C     -0.000000    -7.100000    -0.228571
  C      1.229756    -7.810000    -0.228571
  C     -2.459512    -1.420000    -1.142857
  C     -2.459512    -2.840000    -1.142857
  C     -1.229756    -3.550000    -0.914286
  C     -0.000000    -2.840000    -0.914286
  C      4.919024    -1.420000     1.142857
  C      2.459512    -2.840000     1.142857
  C      1.229756    -3.550000    -0.685714
  C     -1.229756    -4.970000    -0.685714
  H      2.465429    11.023173     0.441663
  H      0.288742     9.766462     0.198337
  H      9.549306     9.766462    -0.198337
  H      7.372619    11.023173    -0.441663
  H     10.773145     7.646711    -0.761663
  H     10.773145     5.133289    -0.518337
  H      4.633236     1.255000     1.600000
  H      4.919024    -2.510000    -1.600000
  H      7.089794    -1.246462    -1.721663
  H     -2.170770    -1.246462     1.721663
  H     -0.000000    -2.510000     1.600000
  H     -3.394609     3.386711     1.401663
  H     -3.394609     0.873289     1.158337
  H      4.919024    11.030000     0.000000
  H      4.847942     6.038853     0.238776
  H      5.194259     5.439014    -1.198776
  H      9.552260     3.005000    -0.960000
  H      3.975057     3.385000    -1.280000
  H      8.322504     0.875000    -1.280000
  H      2.601249     2.453084     1.917409
  H     -2.173724     5.515000     0.960000
  H      2.195301     3.156206     0.642591
  H     -0.943968     7.645000     0.640000
  H      3.403480     5.135000     0.640000
  H     -0.000000     2.510000    -1.600000
  H     -2.167782     1.237804    -1.772133
  H      2.459512     2.510000    -1.600000
  H      2.533211    -2.481640    -1.835774
  H      7.074885    -3.001548     0.513582
  H      7.074885    -5.518452     0.857847
  H      3.677347    -8.886257     0.400704
  H      5.857050    -7.627804     0.056439
  H     -0.938026    -7.627804    -0.056439
  H      1.241677    -8.886257    -0.400704
  H     -3.385617    -0.871548    -0.970725
  H     -3.385617    -3.388452    -1.314990
  H      5.834767    -0.851969     0.978981
  H      1.509711    -3.349041     0.978981
  H      2.186012    -3.083005    -0.449940
  H     -2.173724    -5.515000    -0.685714
