120
K-infinitene [1,1,2,1,1,2|2,3,1,2,3,1](-1) EHMO: -114.23690512
  C      1.229756     4.970000    -0.266667
  C      0.000000     5.680000    -0.533333
  C     -1.229756     4.970000    -0.533333
  C     -1.229756     3.550000    -0.800000
  C     -0.000000     2.840000    -0.800000
  C      1.229756     3.550000    -0.266667
  C      6.148780     4.970000     0.533333
  C      4.919024     5.680000     0.533333
  C      3.689268     4.970000     0.266667
  C      3.689268     3.550000     0.266667
  C      4.919024     2.840000     0.800000
  C      6.148780     3.550000     0.800000
  C      7.378536     2.840000     1.066667
  C      4.919024     1.420000     1.333333
  C      6.148780     0.710000     1.333333
  C      7.378536     1.420000     1.066667
  C      3.689268     0.710000    -1.600000
  C      3.689268    -0.710000    -1.600000
  C      4.919024    -1.420000     1.600000
  C      6.148780    -0.710000     1.600000
  C      1.229756     0.710000    -1.600000
  C      0.000000     1.420000    -1.333333
  C     -1.229756     0.710000    -1.333333
  C     -1.229756    -0.710000    -1.600000
  C     -0.000000    -1.420000    -1.600000
  C      1.229756    -0.710000    -1.600000
  C     -2.459512     2.840000    -1.066667
  C     -2.459512     1.420000    -1.066667
  C      2.459512     5.680000     0.000000
  C      2.459512     2.840000     0.000000
  C      2.459512     1.420000    -1.600000
  C      2.459512    -1.420000    -1.600000
  C     -1.229756     0.710000     1.600000
  C     -2.459512     1.420000     1.600000
  C     -3.689268     0.710000     1.600000
  C     -3.689268    -0.710000     1.440000
  C     -2.459512    -1.420000     1.440000
  C     -1.229756    -0.710000     1.600000
  C      3.689268     0.710000     1.600000
  C      2.459512     1.420000     1.600000
  C      1.229756     0.710000     1.600000
  C      1.229756    -0.710000     1.600000
  C      2.459512    -1.420000     1.600000
  C      3.689268    -0.710000     1.600000
  C      7.378536    -5.680000    -0.640000
  C      6.148780    -4.970000    -0.800000
  C      4.919024    -5.680000    -0.800000
  C      4.919024    -7.100000    -0.480000
  C      6.148780    -7.810000    -0.480000
  C      7.378536    -7.100000    -0.640000
  C      3.689268    -7.810000    -0.160000
  C      3.689268    -9.230000    -0.160000
  C      4.919024    -9.940000    -0.320000
  C      6.148780    -9.230000    -0.320000
  C      1.229756    -7.810000     0.160000
  C     -0.000000    -7.100000     0.480000
  C     -1.229756    -7.810000     0.480000
  C     -1.229756    -9.230000     0.320000
  C     -0.000000    -9.940000     0.320000
  C      1.229756    -9.230000     0.160000
  C     -4.919024    -1.420000     1.280000
  C     -4.919024    -2.840000     1.280000
  C     -3.689268    -3.550000     1.120000
  C     -2.459512    -2.840000     1.120000
  C     -0.000000     1.420000     1.600000
  C     -0.000000    -1.420000     1.600000
  C      4.919024    -1.420000    -1.280000
  C      2.459512    -2.840000    -1.280000
  C      3.689268    -3.550000    -1.120000
  C      4.919024    -2.840000    -1.120000
  C      6.148780    -3.550000    -0.960000
  C      3.689268    -4.970000    -0.960000
  C      2.459512    -7.100000     0.000000
  C      2.459512    -9.940000     0.000000
  C      0.000000    -5.680000     0.640000
  C     -1.229756    -4.970000     0.800000
  C     -2.459512    -5.680000     0.800000
  C     -2.459512    -7.100000     0.640000
  C     -1.229756    -3.550000     0.960000
  C     -3.689268    -4.970000     0.960000
  H      0.016080     6.751472    -0.732805
  H     -2.165718     5.491810    -0.333861
  H      7.084742     5.491810     0.333861
  H      4.902944     6.751472     0.732805
  H      8.298419     3.389662     1.266139
  H      8.298419     0.870338     0.867195
  H      4.633236     1.255000    -1.600000
  H      4.919024    -2.510000     1.600000
  H      7.084742    -1.231810     1.799472
  H     -2.165718    -1.231810    -1.799472
  H     -0.000000    -2.510000    -1.600000
  H     -3.379394     3.389662    -1.266139
  H     -3.379394     0.870338    -0.867195
  H      2.459512     6.770000     0.000000
  H      2.459512     1.750000     0.000000
  H      2.459512     2.510000    -1.600000
  H     -2.459512     2.510000     1.600000
  H     -4.630282     1.246462     1.721663
  H      2.459512     2.510000     1.600000
  H      2.459512    -2.510000     1.600000
  H      8.313633    -5.133289    -0.518337
  H      8.313633    -7.646711    -0.761663
  H      4.913107   -11.023173    -0.441663
  H      7.089794    -9.766462    -0.198337
  H     -2.170770    -9.766462     0.198337
  H      0.005917   -11.023173     0.441663
  H     -5.854121    -0.873289     1.158337
  H     -5.854121    -3.386711     1.401663
  H     -0.000000     2.510000     1.600000
  H      0.141737    -2.453084     1.917409
  H      5.848599    -0.863311    -1.161309
  H      1.512618    -3.366691    -1.161309
  H      7.092748    -3.005000    -0.960000
  H      2.734746    -5.439014    -1.198776
  H      2.388429    -6.038853     0.238776
  H      2.459512   -11.030000    -0.000000
  H      0.943968    -5.135000     0.640000
  H     -3.403480    -7.645000     0.640000
  H     -0.264211    -3.156206     0.642591
  H     -4.633236    -5.515000     0.960000
