120
K-infinitene [1,1,2,1,1,2|3,1,2,3,1,2](-3) EHMO: -113.96728930
  C      2.459512     7.100000     0.355556
  C      1.229756     7.810000     0.533333
  C      0.000000     7.100000     0.533333
  C      0.000000     5.680000     0.711111
  C      1.229756     4.970000     0.711111
  C      2.459512     5.680000     0.355556
  C      9.838049     7.100000    -0.533333
  C      8.608293     7.810000    -0.533333
  C      7.378536     7.100000    -0.355556
  C      7.378536     5.680000    -0.355556
  C      8.608293     4.970000    -0.711111
  C      9.838049     5.680000    -0.711111
  C     11.067805     4.970000    -0.888889
  C      8.608293     3.550000    -1.066667
  C      9.838049     2.840000    -1.066667
  C     11.067805     3.550000    -0.888889
  C      8.608293     0.710000     1.600000
  C      7.378536     1.420000     1.600000
  C      6.148780     0.710000     1.600000
  C      6.148780    -0.710000     1.600000
  C      7.378536    -1.420000     1.600000
  C      8.608293    -0.710000     1.600000
  C      1.229756     0.710000     1.600000
  C      0.000000     1.420000     1.422222
  C     -1.229756     0.710000     1.422222
  C     -1.229756    -0.710000     1.600000
  C      0.000000    -1.420000     1.600000
  C      1.229756    -0.710000     1.600000
  C      0.000000     2.840000     1.066667
  C     -1.229756     3.550000     1.066667
  C     -2.459512     2.840000     1.244444
  C     -2.459512     1.420000     1.244444
  C      4.919024     7.100000    -0.000000
  C      3.689268     7.810000     0.177778
  C      3.689268     4.970000     0.177778
  C      4.919024     5.680000    -0.000000
  C      6.148780     7.810000    -0.177778
  C      6.148780     4.970000    -0.177778
  C      7.378536     2.840000    -1.244444
  C      9.838049     1.420000    -1.244444
  C      4.919024     1.420000     1.600000
  C      3.689268     0.710000     1.600000
  C      3.689268    -0.710000     1.600000
  C      4.919024    -1.420000     1.600000
  C      2.459512     1.420000     1.600000
  C      2.459512    -1.420000     1.600000
  C     -1.229756     4.970000     0.888889
  C      1.229756     3.550000     0.888889
  C      8.608293     0.710000    -1.600000
  C      7.378536     1.420000    -1.600000
  C      6.148780     0.710000    -1.600000
  C      6.148780    -0.710000    -1.600000
  C      7.378536    -1.420000    -1.600000
  C      8.608293    -0.710000    -1.600000
  C     13.527317     0.710000     0.800000
  C     12.297561     1.420000     0.800000
  C     11.067805     0.710000     1.000000
  C     11.067805    -0.710000     1.000000
  C     12.297561    -1.420000     0.600000
  C     13.527317    -0.710000     0.600000
  C     14.757073    -1.420000     0.400000
  C     12.297561    -2.840000     0.200000
  C     13.527317    -3.550000     0.200000
  C     14.757073    -2.840000     0.400000
  C     11.067805    -3.550000    -0.200000
  C     11.067805    -4.970000    -0.200000
  C     12.297561    -5.680000    -0.000000
  C     13.527317    -4.970000    -0.000000
  C      8.608293    -3.550000    -0.600000
  C      7.378536    -2.840000    -1.000000
  C      6.148780    -3.550000    -1.000000
  C      6.148780    -4.970000    -0.800000
  C      7.378536    -5.680000    -0.800000
  C      8.608293    -4.970000    -0.600000
  C      4.919024    -1.420000    -1.200000
  C      4.919024    -2.840000    -1.200000
  C      9.838049     1.420000     1.200000
  C      9.838049    -1.420000     1.200000
  C      9.838049    -2.840000    -0.400000
  C      9.838049    -5.680000    -0.400000
  H      1.237040     8.891597     0.668218
  H     -0.940333     7.634491     0.398449
  H     10.778381     7.634491    -0.398449
  H      8.601009     8.891597    -0.668218
  H     12.000854     5.517107    -1.023774
  H     12.000854     3.002893    -0.754004
  H      7.378536     2.510000     1.600000
  H      7.378536    -2.510000     1.600000
  H     -2.170089    -1.244491     1.734885
  H     -0.000000    -2.510000     1.600000
  H     -3.392561     3.387107     1.379329
  H     -3.392561     0.872893     1.109560
  H      3.689268     8.900000     0.177778
  H      3.689268     3.880000     0.177778
  H      6.148780     8.900000    -0.177778
  H      6.077121     3.908636     0.059860
  H      6.390938     3.291380    -1.339344
  H     10.764409     0.860685    -1.113591
  H      4.919024     2.510000     1.600000
  H      4.919024    -2.510000     1.600000
  H      2.592055     2.450419     1.929800
  H      2.459512    -2.510000     1.600000
  H     -2.173724     5.515000     0.888889
  H      2.188397     3.149576     0.559089
  H      5.204813     1.255000    -1.600000
  H      9.559701    -1.233690    -1.693114
  H     14.466705     1.241755     0.951283
  H     12.288380     2.499411     0.648717
  H     15.687280    -0.872343     0.248717
  H     15.687280    -3.387657     0.551283
  H     12.288380    -6.759411     0.151283
  H     14.466705    -5.501755    -0.151283
  H      5.209392    -5.501755    -0.648717
  H      7.387718    -6.759411    -0.951283
  H      4.026972    -0.864886    -0.909844
  H      3.988817    -3.387657    -1.351283
  H      9.811530     2.499902     1.054370
  H      9.811530    -2.499902     1.054370
  H      9.860224    -1.754211    -0.306886
  H      9.838049    -6.770000    -0.400000
