252
C-infinitene <2,4,2,4,2,4|4,6,2,4,6,2>(-4) EHMO: -240.62953260
  C      3.550000    11.067805     0.000000
  C      2.840000    12.297561     0.000000
  C      1.420000    12.297561    -0.228571
  C      0.710000    11.067805    -0.228571
  C      1.420000     9.838049    -0.228571
  C      2.840000     9.838049    -0.228571
  C      7.810000    11.067805     0.457143
  C      7.100000    12.297561     0.228571
  C      5.680000    12.297561     0.228571
  C      4.970000    11.067805     0.228571
  C      5.680000     9.838049     0.228571
  C      7.100000     9.838049     0.457143
  C     12.070000     3.689268     1.142857
  C     11.360000     4.919024     1.142857
  C      9.940000     4.919024     1.142857
  C      9.230000     3.689268     1.142857
  C      9.940000     2.459512     1.371429
  C     11.360000     2.459512     1.371429
  C      9.940000     0.000000     1.600000
  C      9.230000     1.229756     1.600000
  C      7.810000     1.229756     1.600000
  C      7.100000     0.000000     1.600000
  C      7.810000    -1.229756     1.600000
  C      9.230000    -1.229756     1.600000
  C      1.420000     0.000000    -1.600000
  C      0.710000     1.229756    -1.600000
  C     -0.710000     1.229756    -1.600000
  C     -1.420000     0.000000    -1.600000
  C     -0.710000    -1.229756    -1.600000
  C      0.710000    -1.229756    -1.600000
  C     -0.710000     3.689268    -1.142857
  C     -1.420000     4.919024    -0.914286
  C     -2.840000     4.919024    -0.914286
  C     -3.550000     3.689268    -1.142857
  C     -2.840000     2.459512    -1.142857
  C     -1.420000     2.459512    -1.142857
  C      9.940000     7.378536     0.914286
  C      9.230000     8.608293     0.685714
  C      7.810000     8.608293     0.685714
  C      7.100000     7.378536     0.685714
  C      7.810000     6.148780     0.685714
  C      9.230000     6.148780     0.914286
  C      5.680000     0.000000     1.600000
  C      4.970000     1.229756     1.600000
  C      3.550000     1.229756     1.600000
  C      2.840000     0.000000    -1.600000
  C      3.550000    -1.229756    -1.600000
  C      4.970000    -1.229756     1.600000
  C      1.420000     7.378536    -0.685714
  C      0.710000     8.608293    -0.457143
  C     -0.710000     8.608293    -0.457143
  C     -1.420000     7.378536    -0.685714
  C     -0.710000     6.148780    -0.685714
  C      0.710000     6.148780    -0.685714
  C     -0.710000    11.067805    -0.457143
  C     -1.420000     9.838049    -0.457143
  C      4.970000    13.527317     0.000000
  C      3.550000    13.527317     0.000000
  C     12.070000     6.148780     0.914286
  C     11.360000     7.378536     0.914286
  C     12.070000     1.229756     1.371429
  C     11.360000    -0.000000     1.371429
  C      1.420000    -2.459512    -1.600000
  C      2.840000    -2.459512    -1.600000
  C     -3.550000     1.229756    -1.371429
  C     -2.840000     0.000000    -1.371429
  C      9.940000     9.838049     0.457143
  C      9.230000    11.067805     0.457143
  C      5.680000    -2.459512     1.600000
  C      7.100000    -2.459512     1.600000
  C     -2.840000     7.378536    -0.914286
  C     -3.550000     6.148780    -0.914286
  C     -7.100000     0.000000     1.600000
  C     -7.810000     1.229756     1.600000
  C     -9.230000     1.229756     1.600000
  C     -9.940000     0.000000     1.600000
  C     -9.230000    -1.229756     1.600000
  C     -7.810000    -1.229756     1.600000
  C      1.420000     0.000000     1.600000
  C      0.710000     1.229756     1.600000
  C     -0.710000     1.229756     1.600000
  C     -1.420000     0.000000     1.600000
  C     -0.710000    -1.229756     1.600000
  C      0.710000    -1.229756     1.600000
  C      7.810000   -11.067805    -0.757895
  C      7.100000    -9.838049    -0.926316
  C      5.680000    -9.838049    -0.926316
  C      4.970000   -11.067805    -0.757895
  C      5.680000   -12.297561    -0.757895
  C      7.100000   -12.297561    -0.757895
  C      5.680000   -14.757073    -0.589474
  C      4.970000   -13.527317    -0.589474
  C      3.550000   -13.527317    -0.421053
  C      2.840000   -14.757073    -0.421053
  C      3.550000   -15.986829    -0.421053
  C      4.970000   -15.986829    -0.421053
  C     -2.840000   -14.757073     0.084211
  C     -3.550000   -13.527317     0.252632
  C     -4.970000   -13.527317     0.252632
  C     -5.680000   -14.757073     0.252632
  C     -4.970000   -15.986829     0.252632
  C     -3.550000   -15.986829     0.084211
  C     -9.230000    -3.689268     1.263158
  C     -9.940000    -2.459512     1.263158
  C    -11.360000    -2.459512     1.263158
  C    -12.070000    -3.689268     1.263158
  C    -11.360000    -4.919024     1.094737
  C     -9.940000    -4.919024     1.094737
  C     -2.840000     0.000000     1.600000
  C     -3.550000     1.229756     1.600000
  C     -4.970000     1.229756     1.600000
  C     -5.680000     0.000000     1.600000
  C     -4.970000    -1.229756     1.600000
  C     -3.550000    -1.229756     1.600000
  C      3.550000    -3.689268    -1.431579
  C      2.840000    -2.459512     1.600000
  C      1.420000    -2.459512     1.600000
  C      0.710000    -3.689268    -1.431579
  C      1.420000    -4.919024    -1.431579
  C      2.840000    -4.919024    -1.431579
  C      5.680000    -7.378536    -1.094737
  C      4.970000    -6.148780    -1.263158
  C      3.550000    -6.148780    -1.263158
  C      2.840000    -7.378536    -1.094737
  C      3.550000    -8.608293    -1.094737
  C      4.970000    -8.608293    -1.094737
  C      1.420000   -14.757073    -0.252632
  C      0.710000   -13.527317    -0.084211
  C     -0.710000   -13.527317    -0.084211
  C     -1.420000   -14.757073    -0.084211
  C     -0.710000   -15.986829    -0.084211
  C      0.710000   -15.986829    -0.252632
  C     -4.970000   -11.067805     0.589474
  C     -5.680000    -9.838049     0.589474
  C     -7.100000    -9.838049     0.589474
  C     -7.810000   -11.067805     0.589474
  C     -7.100000   -12.297561     0.421053
  C     -5.680000   -12.297561     0.421053
  C     -7.100000    -7.378536     0.926316
  C     -7.810000    -6.148780     0.926316
  C     -9.230000    -6.148780     0.926316
  C     -9.940000    -7.378536     0.926316
  C     -9.230000    -8.608293     0.757895
  C     -7.810000    -8.608293     0.757895
  C    -11.360000     0.000000     1.431579
  C    -12.070000    -1.229756     1.431579
  C     -1.420000     2.459512     1.600000
  C     -2.840000     2.459512     1.600000
  C      7.810000    -8.608293    -0.926316
  C      7.100000    -7.378536    -0.926316
  C      7.810000   -13.527317    -0.589474
  C      7.100000   -14.757073    -0.589474
  C     -2.840000   -17.216585     0.084211
  C     -1.420000   -17.216585     0.084211
  C    -12.070000    -6.148780     1.094737
  C    -11.360000    -7.378536     1.094737
  C     -5.680000     2.459512     1.600000
  C     -7.100000     2.459512     1.600000
  C      3.550000    -1.229756     1.600000
  C      2.840000    -0.000000     1.600000
  C      5.680000    -4.919024    -1.263158
  C      4.970000    -3.689268    -1.263158
  C      1.420000   -17.216585    -0.252632
  C      2.840000   -17.216585    -0.252632
  C     -7.810000   -13.527317     0.421053
  C     -7.100000   -14.757073     0.421053
  C     -9.940000    -9.838049     0.757895
  C     -9.230000   -11.067805     0.757895
  H      0.892196    13.235587    -0.400704
  H      3.388452     8.911944    -0.400704
  H      7.648452    13.223666     0.056439
  H      5.152196     8.900023     0.056439
  H     13.146257     3.677347     0.970725
  H      8.153743     3.677347     0.970725
  H      7.265000     2.173724     1.600000
  H      9.775000    -2.173724     1.600000
  H      1.255000     2.173724    -1.600000
  H     -1.255000    -2.173724    -1.600000
  H      0.366257     3.701189    -1.314990
  H     -4.626257     3.701189    -1.314990
  H      6.010000     7.378536     0.685714
  H      7.282196     5.210754     0.513582
  H      5.515000     2.173724     1.600000
  H      3.005000     2.173724     1.600000
  H      3.385000     0.943968    -1.600000
  H      4.640000    -1.229756    -1.600000
  H      2.496257     7.390457    -0.857847
  H      1.255000     5.204813    -0.685714
  H     -1.237804    12.005831    -0.629275
  H     -2.510000     9.838049    -0.457143
  H      5.518452    14.453422    -0.172133
  H      3.005000    14.471284     0.000000
  H     13.146257     6.136859     0.742153
  H     11.905000     8.322504     0.914286
  H     13.160000     1.229756     1.371429
  H     11.887804    -0.938026     1.199296
  H     -4.626257     1.241677    -1.543561
  H     -3.367804    -0.938026    -1.199296
  H     11.016257     9.826128     0.285010
  H      9.775000    12.011772     0.457143
  H      5.135000    -3.403480     1.600000
  H      7.645000    -3.403480     1.600000
  H     -3.367804     8.316562    -1.086418
  H     -4.640000     6.148780    -0.914286
  H     -9.775000     2.173724     1.600000
  H     -7.265000    -2.173724     1.600000
  H      1.255000     2.173724     1.600000
  H     -1.255000    -2.173724     1.600000
  H      8.892446   -11.061257    -0.629958
  H      3.887554   -11.061257    -0.629958
  H      3.014447   -12.586617    -0.293116
  H      5.516893   -16.920981    -0.293116
  H     -3.003107   -12.593165     0.380568
  H     -5.505553   -16.927529     0.380568
  H     -8.147554    -3.695816     1.391095
  H    -13.152446    -3.695816     1.391095
  H     -5.515000    -2.173724     1.600000
  H     -3.005000    -2.173724     1.600000
  H      3.385000    -3.403480     1.600000
  H      0.875000    -3.403480     1.600000
  H     -0.372446    -3.682721    -1.303642
  H      0.875000    -5.862992    -1.431579
  H      1.757554    -7.371989    -0.966800
  H      3.005000    -9.552260    -1.094737
  H      1.256893   -12.593165     0.043726
  H     -1.255000   -12.583349    -0.084211
  H     -3.887554   -11.074352     0.717410
  H     -5.135000    -8.894081     0.589474
  H     -6.017554    -7.385084     1.054252
  H     -7.265000    -5.204813     0.926316
  H    -11.895553     0.940700     1.303642
  H    -13.152446    -1.236304     1.559516
  H     -0.875000     3.403480     1.600000
  H     -3.385000     3.403480     1.600000
  H      8.900000    -8.608293    -0.926316
  H      7.635553    -6.437837    -0.798379
  H      8.892446   -13.520769    -0.461537
  H      7.645000   -15.701041    -0.589474
  H     -3.385000   -18.160553     0.084211
  H     -0.873107   -18.150737     0.212147
  H    -13.160000    -6.148780     1.094737
  H    -11.895553    -8.319236     1.222673
  H     -5.135000     3.403480     1.600000
  H     -7.645000     3.403480     1.600000
  H      6.770000    -4.919024    -1.263158
  H      5.505553    -2.748569    -1.135221
  H      0.875000   -18.160553    -0.252632
  H      3.386893   -18.150737    -0.124695
  H     -8.900000   -13.527317     0.421053
  H     -7.635553   -15.697772     0.548989
  H    -11.030000    -9.838049     0.757895
  H     -9.765553   -12.008504     0.885831
