252
C-infinitene <4,2,4,2,4,2|2,4,6,2,4,6>(0) EHMO: -240.74120114
  C     -0.710000    11.067805    -0.200000
  C     -1.420000    12.297561    -0.200000
  C     -2.840000    12.297561    -0.400000
  C     -3.550000    11.067805    -0.400000
  C     -2.840000     9.838049    -0.400000
  C     -1.420000     9.838049    -0.400000
  C      7.810000    11.067805     0.600000
  C      7.100000    12.297561     0.400000
  C      5.680000    12.297561     0.400000
  C      4.970000    11.067805     0.400000
  C      5.680000     9.838049     0.400000
  C      7.100000     9.838049     0.600000
  C      9.940000     7.378536     0.800000
  C      9.230000     8.608293     0.800000
  C      7.810000     8.608293     0.800000
  C      7.100000     7.378536     0.800000
  C      7.810000     6.148780     1.000000
  C      9.230000     6.148780     1.000000
  C      5.680000    -0.000000    -1.600000
  C      4.970000     1.229756    -1.600000
  C      3.550000     1.229756    -1.600000
  C      2.840000    -0.000000    -1.600000
  C      3.550000    -1.229756    -1.600000
  C      4.970000    -1.229756    -1.600000
  C      1.420000    -0.000000    -1.600000
  C      0.710000     1.229756    -1.600000
  C     -0.710000     1.229756    -1.600000
  C     -1.420000    -0.000000    -1.600000
  C     -0.710000    -1.229756    -1.600000
  C      0.710000    -1.229756    -1.600000
  C     -2.840000     7.378536    -0.800000
  C     -3.550000     8.608293    -0.600000
  C     -4.970000     8.608293    -0.600000
  C     -5.680000     7.378536    -0.800000
  C     -4.970000     6.148780    -0.800000
  C     -3.550000     6.148780    -0.800000
  C      3.550000    11.067805     0.200000
  C      2.840000    12.297561     0.200000
  C      1.420000    12.297561     0.000000
  C      0.710000    11.067805     0.000000
  C      1.420000     9.838049     0.000000
  C      2.840000     9.838049     0.000000
  C      7.810000     3.689268     1.200000
  C      7.100000     4.919024     1.200000
  C      5.680000     4.919024     1.200000
  C      4.970000     3.689268     1.200000
  C      5.680000     2.459512     1.400000
  C      7.100000     2.459512     1.400000
  C     -0.710000     3.689268    -1.200000
  C     -1.420000     4.919024    -1.200000
  C     -2.840000     4.919024    -1.000000
  C     -3.550000     3.689268    -1.000000
  C     -2.840000     2.459512    -1.200000
  C     -1.420000     2.459512    -1.200000
  C     -4.970000    11.067805    -0.600000
  C     -5.680000     9.838049    -0.600000
  C      4.970000    13.527317     0.200000
  C      3.550000    13.527317     0.200000
  C      9.940000     9.838049     0.600000
  C      9.230000    11.067805     0.600000
  C      7.810000     1.229756     1.400000
  C      7.100000    -0.000000     1.400000
  C      1.420000    -2.459512    -1.600000
  C      2.840000    -2.459512    -1.600000
  C     -5.680000     4.919024    -1.000000
  C     -4.970000     3.689268    -1.000000
  C      0.710000    13.527317    -0.200000
  C     -0.710000    13.527317    -0.200000
  C      9.940000     4.919024     1.000000
  C      9.230000     3.689268     1.000000
  C     -3.550000     1.229756    -1.400000
  C     -2.840000     0.000000    -1.400000
  C      1.420000     0.000000     1.600000
  C      0.710000     1.229756     1.600000
  C     -0.710000     1.229756     1.600000
  C     -1.420000     0.000000     1.600000
  C     -0.710000    -1.229756     1.600000
  C      0.710000    -1.229756     1.600000
  C      5.680000     0.000000     1.600000
  C      4.970000     1.229756     1.600000
  C      3.550000     1.229756     1.600000
  C      2.840000     0.000000     1.600000
  C      3.550000    -1.229756     1.600000
  C      4.970000    -1.229756     1.600000
  C      9.940000    -7.378536    -1.018182
  C      9.230000    -6.148780    -1.163636
  C      7.810000    -6.148780    -1.163636
  C      7.100000    -7.378536    -1.018182
  C      7.810000    -8.608293    -1.018182
  C      9.230000    -8.608293    -1.018182
  C      3.550000   -18.446341    -0.290909
  C      2.840000   -17.216585    -0.290909
  C      1.420000   -17.216585    -0.145455
  C      0.710000   -18.446341    -0.145455
  C      1.420000   -19.676097    -0.145455
  C      2.840000   -19.676097    -0.145455
  C     -0.710000   -18.446341    -0.000000
  C     -1.420000   -17.216585     0.145455
  C     -2.840000   -17.216585     0.145455
  C     -3.550000   -18.446341     0.145455
  C     -2.840000   -19.676097     0.145455
  C     -1.420000   -19.676097    -0.000000
  C     -4.970000   -11.067805     0.727273
  C     -5.680000    -9.838049     0.727273
  C     -7.100000    -9.838049     0.727273
  C     -7.810000   -11.067805     0.727273
  C     -7.100000   -12.297561     0.581818
  C     -5.680000   -12.297561     0.581818
  C      7.810000    -3.689268    -1.309091
  C      7.100000    -2.459512    -1.454545
  C      5.680000    -2.459512    -1.454545
  C      4.970000    -3.689268    -1.309091
  C      5.680000    -4.919024    -1.309091
  C      7.100000    -4.919024    -1.309091
  C      7.810000   -11.067805    -0.872727
  C      7.100000    -9.838049    -0.872727
  C      5.680000    -9.838049    -0.727273
  C      4.970000   -11.067805    -0.727273
  C      5.680000   -12.297561    -0.727273
  C      7.100000   -12.297561    -0.727273
  C      5.680000   -14.757073    -0.581818
  C      4.970000   -13.527317    -0.581818
  C      3.550000   -13.527317    -0.436364
  C      2.840000   -14.757073    -0.436364
  C      3.550000   -15.986829    -0.436364
  C      4.970000   -15.986829    -0.436364
  C     -2.840000   -14.757073     0.436364
  C     -3.550000   -13.527317     0.436364
  C     -4.970000   -13.527317     0.436364
  C     -5.680000   -14.757073     0.436364
  C     -4.970000   -15.986829     0.290909
  C     -3.550000   -15.986829     0.290909
  C     -2.840000    -7.378536     1.018182
  C     -3.550000    -6.148780     1.018182
  C     -4.970000    -6.148780     1.018182
  C     -5.680000    -7.378536     0.872727
  C     -4.970000    -8.608293     0.872727
  C     -3.550000    -8.608293     1.018182
  C     -0.710000    -3.689268     1.309091
  C     -1.420000    -2.459512     1.309091
  C     -2.840000    -2.459512     1.309091
  C     -3.550000    -3.689268     1.163636
  C     -2.840000    -4.919024     1.163636
  C     -1.420000    -4.919024     1.309091
  C     -2.840000     0.000000     1.454545
  C     -3.550000    -1.229756     1.454545
  C      2.840000     2.459512     1.600000
  C      1.420000     2.459512     1.600000
  C      9.940000    -4.919024    -1.163636
  C      9.230000    -3.689268    -1.163636
  C      5.680000   -17.216585    -0.290909
  C      4.970000   -18.446341    -0.290909
  C     -0.710000   -20.905853    -0.000000
  C      0.710000   -20.905853    -0.000000
  C     -7.810000   -13.527317     0.581818
  C     -7.100000   -14.757073     0.581818
  C      7.810000    -1.229756    -1.454545
  C      7.100000    -0.000000    -1.454545
  C      9.940000    -9.838049    -0.872727
  C      9.230000   -11.067805    -0.872727
  C      7.810000   -13.527317    -0.581818
  C      7.100000   -14.757073    -0.581818
  C     -5.680000   -17.216585     0.290909
  C     -4.970000   -18.446341     0.290909
  C     -7.100000    -7.378536     0.872727
  C     -7.810000    -8.608293     0.872727
  C     -4.970000    -3.689268     1.163636
  C     -5.680000    -4.919024     1.163636
  H     -3.371755    13.236949    -0.551283
  H     -0.872343     8.907841    -0.551283
  H      7.647657    13.227768     0.248717
  H      5.148245     8.898660     0.248717
  H     11.019411     7.369355     0.648717
  H      6.020589     7.369355     0.648717
  H      5.515000     2.173724    -1.600000
  H      3.005000     2.173724    -1.600000
  H      1.255000     2.173724    -1.600000
  H     -1.255000    -2.173724    -1.600000
  H     -1.760589     7.387718    -0.951283
  H     -6.759411     7.387718    -0.951283
  H      0.875000     8.894081     0.000000
  H      3.387657     8.907841    -0.151283
  H      5.135000     5.862992     1.200000
  H      4.029242     3.853539     0.674557
  H      0.380000     3.689268    -1.200000
  H     -0.888245     5.858413    -1.351283
  H     -5.501755    12.007193    -0.751283
  H     -6.770000     9.838049    -0.600000
  H      5.517657    14.457524     0.048717
  H      3.005000    14.471284     0.200000
  H     11.019411     9.828867     0.448717
  H      9.775000    12.011772     0.600000
  H      8.900000     1.229756     1.400000
  H      7.631755    -0.939388     1.248717
  H      0.875000    -3.403480    -1.600000
  H      3.090849    -3.449594    -1.980675
  H     -6.759411     4.928205    -1.151283
  H     -5.515000     2.745301    -1.000000
  H      1.257657    14.457524    -0.351283
  H     -1.255000    14.471284    -0.200000
  H     11.030000     4.919024     1.000000
  H      9.761755     2.749880     0.848717
  H     -4.629411     1.238937    -1.551283
  H     -3.371755    -0.939388    -1.248717
  H     -1.255000     2.173724     1.600000
  H      1.255000    -2.173724     1.600000
  H      3.005000    -2.173724     1.600000
  H      5.515000    -2.173724     1.600000
  H     11.024345    -7.373636    -0.907399
  H      6.015655    -7.373636    -0.907399
  H      0.882072   -16.275065    -0.034672
  H      3.386417   -20.612717    -0.034672
  H     -0.873583   -16.279966     0.256237
  H     -3.377928   -20.617618     0.256237
  H     -3.885655   -11.072706     0.838055
  H     -8.894345   -11.072706     0.838055
  H      4.042229    -3.942440    -0.796017
  H      5.135000    -5.862992    -1.309091
  H      5.142072    -8.896528    -0.616490
  H      3.880000   -11.067805    -0.727273
  H      3.012072   -12.585796    -0.325581
  H      1.750000   -14.757073    -0.436364
  H     -1.755655   -14.761974     0.547146
  H     -3.005000   -12.583349     0.436364
  H     -1.750000    -7.378536     1.018182
  H     -3.012072    -9.549813     1.128964
  H      0.380000    -3.689268     1.309091
  H     -0.882072    -5.860545     1.419874
  H     -3.377928     0.941520     1.343763
  H     -4.634345    -1.234657     1.565328
  H      3.175595     3.432056     1.960049
  H      0.875000     3.403480     1.600000
  H     11.030000    -4.919024    -1.163636
  H      9.767928    -2.747748    -1.052854
  H      6.764345   -17.211684    -0.180126
  H      5.515000   -19.390309    -0.290909
  H     -1.255000   -21.849821    -0.000000
  H      1.256417   -21.842473     0.110783
  H     -8.900000   -13.527317     0.581818
  H     -7.637928   -15.698593     0.692601
  H      8.900000    -1.229756    -1.454545
  H      7.637928     0.941520    -1.343763
  H     11.024345    -9.833148    -0.761945
  H      9.775000   -12.011772    -0.872727
  H      8.894345   -13.522416    -0.471036
  H      7.645000   -15.701041    -0.581818
  H     -6.770000   -17.216585     0.290909
  H     -5.507928   -19.387862     0.401692
  H     -7.645000    -6.434569     0.872727
  H     -8.894345    -8.613193     0.983510
  H     -5.515000    -2.745301     1.163636
  H     -6.764345    -4.923925     1.274419
