252
C-infinitene <2,4,2,4,2,4|6,4,2,6,4,2>(-4) EHMO: -240.62240590
  C     -0.710000    11.067805     0.282353
  C     -1.420000    12.297561     0.282353
  C     -2.840000    12.297561     0.470588
  C     -3.550000    11.067805     0.470588
  C     -2.840000     9.838049     0.470588
  C     -1.420000     9.838049     0.470588
  C     12.070000    11.067805    -0.847059
  C     11.360000    12.297561    -0.658824
  C      9.940000    12.297561    -0.658824
  C      9.230000    11.067805    -0.658824
  C      9.940000     9.838049    -0.658824
  C     11.360000     9.838049    -0.847059
  C     16.330000     3.689268    -1.411765
  C     15.620000     4.919024    -1.411765
  C     14.200000     4.919024    -1.411765
  C     13.490000     3.689268    -1.411765
  C     14.200000     2.459512     1.600000
  C     15.620000     2.459512     1.600000
  C     14.200000     0.000000     1.600000
  C     13.490000     1.229756     1.600000
  C     12.070000     1.229756     1.600000
  C     11.360000     0.000000     1.600000
  C     12.070000    -1.229756     1.600000
  C     13.490000    -1.229756     1.600000
  C      1.420000     0.000000     1.600000
  C      0.710000     1.229756     1.600000
  C     -0.710000     1.229756     1.600000
  C     -1.420000     0.000000     1.600000
  C     -0.710000    -1.229756     1.600000
  C      0.710000    -1.229756     1.600000
  C     -2.840000     7.378536     0.847059
  C     -3.550000     8.608293     0.658824
  C     -4.970000     8.608293     0.658824
  C     -5.680000     7.378536     0.847059
  C     -4.970000     6.148780     0.847059
  C     -3.550000     6.148780     0.847059
  C      3.550000    11.067805    -0.094118
  C      2.840000    12.297561    -0.094118
  C      1.420000    12.297561     0.094118
  C      0.710000    11.067805     0.094118
  C      1.420000     9.838049     0.094118
  C      2.840000     9.838049     0.094118
  C      7.810000    11.067805    -0.470588
  C      7.100000    12.297561    -0.470588
  C      5.680000    12.297561    -0.282353
  C      4.970000    11.067805    -0.282353
  C      5.680000     9.838049    -0.282353
  C      7.100000     9.838049    -0.282353
  C     14.200000     7.378536    -1.223529
  C     13.490000     8.608293    -1.035294
  C     12.070000     8.608293    -1.035294
  C     11.360000     7.378536    -1.035294
  C     12.070000     6.148780    -1.035294
  C     13.490000     6.148780    -1.223529
  C      9.940000     0.000000     1.600000
  C      9.230000     1.229756     1.600000
  C      7.810000     1.229756     1.600000
  C      7.100000     0.000000     1.600000
  C      7.810000    -1.229756     1.600000
  C      9.230000    -1.229756     1.600000
  C      5.680000     0.000000     1.600000
  C      4.970000     1.229756     1.600000
  C      3.550000     1.229756     1.600000
  C      2.840000     0.000000     1.600000
  C      3.550000    -1.229756     1.600000
  C      4.970000    -1.229756     1.600000
  C     -0.710000     3.689268     1.223529
  C     -1.420000     4.919024     1.223529
  C     -2.840000     4.919024     1.035294
  C     -3.550000     3.689268     1.035294
  C     -2.840000     2.459512     1.223529
  C     -1.420000     2.459512     1.223529
  C     -4.970000    11.067805     0.658824
  C     -5.680000     9.838049     0.658824
  C      9.230000    13.527317    -0.470588
  C      7.810000    13.527317    -0.470588
  C     16.330000     6.148780    -1.223529
  C     15.620000     7.378536    -1.223529
  C     16.330000     1.229756     1.600000
  C     15.620000    -0.000000     1.600000
  C      1.420000    -2.459512     1.600000
  C      2.840000    -2.459512     1.600000
  C     -5.680000     4.919024     1.035294
  C     -4.970000     3.689268     1.035294
  C      0.710000    13.527317     0.282353
  C     -0.710000    13.527317     0.282353
  C      4.970000    13.527317    -0.094118
  C      3.550000    13.527317    -0.094118
  C     14.200000     9.838049    -0.847059
  C     13.490000    11.067805    -0.847059
  C      9.940000    -2.459512     1.600000
  C     11.360000    -2.459512     1.600000
  C      5.680000    -2.459512     1.600000
  C      7.100000    -2.459512     1.600000
  C     -3.550000     1.229756     1.411765
  C     -2.840000     0.000000     1.411765
  C      9.940000     0.000000    -1.600000
  C      9.230000     1.229756    -1.600000
  C      7.810000     1.229756    -1.600000
  C      7.100000     0.000000    -1.600000
  C      7.810000    -1.229756    -1.600000
  C      9.230000    -1.229756    -1.600000
  C     18.460000     0.000000     1.386667
  C     17.750000     1.229756     1.386667
  C     16.330000     1.229756    -1.600000
  C     15.620000     0.000000    -1.600000
  C     16.330000    -1.229756     1.386667
  C     17.750000    -1.229756     1.386667
  C     20.590000    -3.689268     0.960000
  C     19.880000    -2.459512     1.173333
  C     18.460000    -2.459512     1.173333
  C     17.750000    -3.689268     0.960000
  C     18.460000    -4.919024     0.960000
  C     19.880000    -4.919024     0.960000
  C     16.330000   -11.067805     0.320000
  C     15.620000    -9.838049     0.320000
  C     14.200000    -9.838049     0.106667
  C     13.490000   -11.067805     0.106667
  C     14.200000   -12.297561     0.106667
  C     15.620000   -12.297561     0.106667
  C     12.070000   -11.067805    -0.106667
  C     11.360000    -9.838049    -0.320000
  C      9.940000    -9.838049    -0.320000
  C      9.230000   -11.067805    -0.320000
  C      9.940000   -12.297561    -0.320000
  C     11.360000   -12.297561    -0.106667
  C      7.810000    -3.689268    -1.173333
  C      7.100000    -2.459512    -1.173333
  C      5.680000    -2.459512    -1.173333
  C      4.970000    -3.689268    -1.173333
  C      5.680000    -4.919024    -0.960000
  C      7.100000    -4.919024    -0.960000
  C     14.200000     0.000000    -1.600000
  C     13.490000     1.229756    -1.600000
  C     12.070000     1.229756    -1.600000
  C     11.360000     0.000000    -1.600000
  C     12.070000    -1.229756    -1.600000
  C     13.490000    -1.229756    -1.600000
  C     18.460000    -7.378536     0.746667
  C     17.750000    -6.148780     0.746667
  C     16.330000    -6.148780     0.533333
  C     15.620000    -7.378536     0.533333
  C     16.330000    -8.608293     0.533333
  C     17.750000    -8.608293     0.533333
  C      9.940000    -7.378536    -0.746667
  C      9.230000    -6.148780    -0.746667
  C      7.810000    -6.148780    -0.746667
  C      7.100000    -7.378536    -0.746667
  C      7.810000    -8.608293    -0.533333
  C      9.230000    -8.608293    -0.533333
  C      5.680000     0.000000    -1.386667
  C      4.970000    -1.229756    -1.386667
  C     15.620000     2.459512    -1.600000
  C     14.200000     2.459512    -1.600000
  C     20.590000    -1.229756     1.173333
  C     19.880000    -0.000000     1.173333
  C     18.460000    -9.838049     0.320000
  C     17.750000   -11.067805     0.320000
  C     12.070000   -13.527317    -0.106667
  C     13.490000   -13.527317    -0.106667
  C      4.970000    -6.148780    -0.960000
  C      5.680000    -7.378536    -0.960000
  C     11.360000     2.459512    -1.600000
  C      9.940000     2.459512    -1.600000
  C     20.590000    -6.148780     0.746667
  C     19.880000    -7.378536     0.746667
  C      7.100000    -9.838049    -0.533333
  C      7.810000   -11.067805    -0.533333
  H     -3.373240    13.237462     0.613209
  H     -0.872642     8.906298     0.613209
  H     11.907358    13.229311    -0.516203
  H      9.406760     8.898147    -0.516203
  H     17.410598     3.681117    -1.269144
  H     12.568629     3.955441    -0.893762
  H     13.655000     3.403480     1.600000
  H     16.165000     3.403480     1.600000
  H     11.525000     2.173724     1.600000
  H     14.035000    -2.173724     1.600000
  H      1.255000     2.173724     1.600000
  H     -1.255000    -2.173724     1.600000
  H     -1.759402     7.386687     0.989679
  H     -6.760598     7.386687     0.989679
  H      0.875000     8.894081     0.094118
  H      3.387358     8.906298     0.236738
  H      5.135000     8.894081    -0.282353
  H      7.647358     8.906298    -0.139733
  H     10.270000     7.378536    -1.035294
  H     11.536760     5.208879    -0.892674
  H      9.775000     2.173724     1.600000
  H      7.265000     2.173724     1.600000
  H      5.515000     2.173724     1.600000
  H      3.005000     2.173724     1.600000
  H      0.380000     3.689268     1.223529
  H     -0.886760     5.858925     1.366150
  H     -5.503240    12.007706     0.801444
  H     -6.770000     9.838049     0.658824
  H      9.777358    14.459067    -0.327968
  H      7.265000    14.471284    -0.470588
  H     17.410598     6.140630    -1.080909
  H     16.165000     8.322504    -1.223529
  H      0.875000    -3.403480     1.600000
  H      3.385000    -3.403480     1.600000
  H     -6.760598     4.927175     1.177915
  H     -5.515000     2.745301     1.035294
  H      1.257358    14.459067     0.424973
  H     -1.255000    14.471284     0.282353
  H      5.517358    14.459067     0.048503
  H      3.005000    14.471284    -0.094118
  H     15.280598     9.829898    -0.704438
  H     14.035000    12.011772    -0.847059
  H      9.395000    -3.403480     1.600000
  H     11.905000    -3.403480     1.600000
  H      5.135000    -3.403480     1.600000
  H      7.645000    -3.403480     1.600000
  H     -4.630598     1.237907     1.554385
  H     -3.373240    -0.939901     1.269144
  H      7.265000     2.173724    -1.600000
  H      9.775000    -2.173724    -1.600000
  H     18.279971     2.168529     1.225619
  H     17.420000     1.229756    -1.600000
  H     16.165000    -0.943968    -1.600000
  H     15.781984    -2.158111     1.225619
  H     21.667987    -3.678850     0.798953
  H     16.672013    -3.678850     0.798953
  H     13.670029    -8.899276    -0.054381
  H     16.168016   -13.225915    -0.054381
  H     11.908016    -8.909694    -0.481047
  H      9.410029   -13.236334    -0.481047
  H      8.887987    -3.699686    -1.334381
  H      3.892013    -3.699686    -1.334381
  H     11.525000    -2.173724    -1.600000
  H     14.035000    -2.173724    -1.600000
  H     15.800029    -5.210007     0.372286
  H     14.530000    -7.378536     0.533333
  H     11.017987    -7.388955    -0.907714
  H      9.775000    -5.204813    -0.746667
  H      5.150029     0.938773    -1.225619
  H      3.892013    -1.240174    -1.547714
  H     21.680000    -1.229756     1.173333
  H     20.409971     0.938773     1.012286
  H     19.537987    -9.827630     0.158953
  H     18.295000   -12.011772     0.320000
  H     11.525000   -14.471284    -0.106667
  H     14.038016   -14.455672    -0.267714
  H      3.880000    -6.148780    -0.960000
  H      5.150029    -8.317309    -1.121047
  H     11.590348     3.469466    -1.939164
  H      9.395000     3.403480    -1.600000
  H     21.667987    -6.138362     0.585619
  H     20.425000    -8.322504     0.746667
  H      6.010000    -9.838049    -0.533333
  H      7.280029   -12.006578    -0.694381
