252
C-infinitene <4,2,4,2,4,2|6,2,4,6,2,4>(0) EHMO: -240.62384702
  C      3.550000    11.067805     0.355556
  C      2.840000    12.297561     0.355556
  C      1.420000    12.297561     0.533333
  C      0.710000    11.067805     0.533333
  C      1.420000     9.838049     0.533333
  C      2.840000     9.838049     0.533333
  C     16.330000    11.067805    -0.711111
  C     15.620000    12.297561    -0.533333
  C     14.200000    12.297561    -0.533333
  C     13.490000    11.067805    -0.533333
  C     14.200000     9.838049    -0.533333
  C     15.620000     9.838049    -0.711111
  C     18.460000     7.378536    -0.888889
  C     17.750000     8.608293    -0.888889
  C     16.330000     8.608293    -0.888889
  C     15.620000     7.378536    -0.888889
  C     16.330000     6.148780    -1.066667
  C     17.750000     6.148780    -1.066667
  C     14.200000     0.000000    -1.600000
  C     13.490000     1.229756    -1.600000
  C     12.070000     1.229756    -1.600000
  C     11.360000     0.000000    -1.600000
  C     12.070000    -1.229756    -1.600000
  C     13.490000    -1.229756    -1.600000
  C      1.420000     0.000000     1.600000
  C      0.710000     1.229756     1.600000
  C     -0.710000     1.229756     1.600000
  C     -1.420000     0.000000     1.600000
  C     -0.710000    -1.229756     1.600000
  C      0.710000    -1.229756     1.600000
  C     -0.710000     3.689268     1.244444
  C     -1.420000     4.919024     1.066667
  C     -2.840000     4.919024     1.066667
  C     -3.550000     3.689268     1.244444
  C     -2.840000     2.459512     1.244444
  C     -1.420000     2.459512     1.244444
  C      7.810000    11.067805    -0.000000
  C      7.100000    12.297561    -0.000000
  C      5.680000    12.297561     0.177778
  C      4.970000    11.067805     0.177778
  C      5.680000     9.838049     0.177778
  C      7.100000     9.838049     0.177778
  C     12.070000    11.067805    -0.355556
  C     11.360000    12.297561    -0.355556
  C      9.940000    12.297561    -0.177778
  C      9.230000    11.067805    -0.177778
  C      9.940000     9.838049    -0.177778
  C     11.360000     9.838049    -0.177778
  C     16.330000     3.689268    -1.244444
  C     15.620000     4.919024    -1.244444
  C     14.200000     4.919024    -1.244444
  C     13.490000     3.689268    -1.244444
  C     14.200000     2.459512    -1.422222
  C     15.620000     2.459512    -1.422222
  C      9.940000     0.000000    -1.600000
  C      9.230000     1.229756    -1.600000
  C      7.810000     1.229756    -1.600000
  C      7.100000     0.000000     1.600000
  C      7.810000    -1.229756     1.600000
  C      9.230000    -1.229756    -1.600000
  C      5.680000     0.000000     1.600000
  C      4.970000     1.229756     1.600000
  C      3.550000     1.229756     1.600000
  C      2.840000     0.000000     1.600000
  C      3.550000    -1.229756     1.600000
  C      4.970000    -1.229756     1.600000
  C      1.420000     7.378536     0.888889
  C      0.710000     8.608293     0.711111
  C     -0.710000     8.608293     0.711111
  C     -1.420000     7.378536     0.888889
  C     -0.710000     6.148780     0.888889
  C      0.710000     6.148780     0.888889
  C     -0.710000    11.067805     0.711111
  C     -1.420000     9.838049     0.711111
  C     13.490000    13.527317    -0.355556
  C     12.070000    13.527317    -0.355556
  C     18.460000     9.838049    -0.711111
  C     17.750000    11.067805    -0.711111
  C     16.330000     1.229756    -1.422222
  C     15.620000    -0.000000    -1.422222
  C      1.420000    -2.459512     1.600000
  C      2.840000    -2.459512     1.600000
  C     -3.550000     1.229756     1.422222
  C     -2.840000     0.000000     1.422222
  C      4.970000    13.527317     0.355556
  C      3.550000    13.527317     0.355556
  C      9.230000    13.527317    -0.000000
  C      7.810000    13.527317    -0.000000
  C     18.460000     4.919024    -1.066667
  C     17.750000     3.689268    -1.066667
  C      9.940000    -2.459512    -1.600000
  C     11.360000    -2.459512    -1.600000
  C      5.680000    -2.459512     1.600000
  C      7.100000    -2.459512     1.600000
  C     -2.840000     7.378536     1.066667
  C     -3.550000     6.148780     1.066667
  C      1.420000     0.000000    -1.600000
  C      0.710000     1.229756    -1.600000
  C     -0.710000     1.229756    -1.600000
  C     -1.420000     0.000000    -1.600000
  C     -0.710000    -1.229756    -1.600000
  C      0.710000    -1.229756    -1.600000
  C      5.680000     0.000000    -1.600000
  C      4.970000     1.229756    -1.600000
  C      3.550000     1.229756    -1.600000
  C      2.840000     0.000000    -1.600000
  C      3.550000    -1.229756    -1.600000
  C      4.970000    -1.229756    -1.600000
  C      9.940000    -7.378536     0.960000
  C      9.230000    -6.148780     1.173333
  C      7.810000    -6.148780     1.173333
  C      7.100000    -7.378536     0.960000
  C      7.810000    -8.608293     0.960000
  C      9.230000    -8.608293     0.960000
  C      7.810000   -11.067805     0.746667
  C      7.100000    -9.838049     0.746667
  C      5.680000    -9.838049     0.533333
  C      4.970000   -11.067805     0.533333
  C      5.680000   -12.297561     0.533333
  C      7.100000   -12.297561     0.533333
  C     -0.710000   -11.067805    -0.106667
  C     -1.420000    -9.838049    -0.320000
  C     -2.840000    -9.838049    -0.320000
  C     -3.550000   -11.067805    -0.320000
  C     -2.840000   -12.297561    -0.320000
  C     -1.420000   -12.297561    -0.106667
  C     -2.840000    -7.378536    -0.746667
  C     -3.550000    -6.148780    -0.746667
  C     -4.970000    -6.148780    -0.746667
  C     -5.680000    -7.378536    -0.746667
  C     -4.970000    -8.608293    -0.533333
  C     -3.550000    -8.608293    -0.533333
  C      7.810000    -3.689268     1.386667
  C      7.100000    -2.459512    -1.600000
  C      5.680000    -2.459512    -1.600000
  C      4.970000    -3.689268     1.386667
  C      5.680000    -4.919024     1.386667
  C      7.100000    -4.919024     1.386667
  C      3.550000   -11.067805     0.320000
  C      2.840000    -9.838049     0.106667
  C      1.420000    -9.838049     0.106667
  C      0.710000   -11.067805     0.106667
  C      1.420000   -12.297561     0.106667
  C      2.840000   -12.297561     0.320000
  C     -0.710000    -3.689268    -1.173333
  C     -1.420000    -2.459512    -1.173333
  C     -2.840000    -2.459512    -1.173333
  C     -3.550000    -3.689268    -0.960000
  C     -2.840000    -4.919024    -0.960000
  C     -1.420000    -4.919024    -1.173333
  C     -2.840000     0.000000    -1.386667
  C     -3.550000    -1.229756    -1.386667
  C      2.840000     2.459512    -1.600000
  C      1.420000     2.459512    -1.600000
  C      9.940000    -4.919024     1.173333
  C      9.230000    -3.689268     1.173333
  C      9.940000    -9.838049     0.746667
  C      9.230000   -11.067805     0.746667
  C     -0.710000   -13.527317    -0.106667
  C      0.710000   -13.527317    -0.106667
  C     -5.680000    -9.838049    -0.533333
  C     -4.970000   -11.067805    -0.533333
  C      7.810000    -1.229756    -1.600000
  C      7.100000    -0.000000    -1.600000
  C      3.550000   -13.527317     0.320000
  C      4.970000   -13.527317     0.320000
  C     -4.970000    -3.689268    -0.960000
  C     -5.680000    -4.919024    -0.960000
  H      0.885509    13.237894     0.668218
  H      3.387107     8.905000     0.668218
  H     16.167107    13.230610    -0.398449
  H     13.665509     8.897716    -0.398449
  H     19.541597     7.371253    -0.754004
  H     14.538403     7.371253    -0.754004
  H     11.525000     2.173724    -1.600000
  H     14.035000    -2.173724    -1.600000
  H      1.255000     2.173724     1.600000
  H     -1.255000    -2.173724     1.600000
  H      0.371597     3.696552     1.379329
  H     -4.631597     3.696552     1.379329
  H      5.135000     8.894081     0.177778
  H      7.647107     8.905000     0.312663
  H      9.395000     8.894081    -0.177778
  H     11.907107     8.905000    -0.042893
  H     13.655000     5.862992    -1.244444
  H     12.408403     3.681984    -1.109560
  H      9.775000     2.173724    -1.600000
  H      7.265000     2.173724    -1.600000
  H      7.645000     0.943968     1.600000
  H      8.900000    -1.229756     1.600000
  H      5.515000     2.173724     1.600000
  H      3.005000     2.173724     1.600000
  H      2.501597     7.385820     1.023774
  H      1.255000     5.204813     0.888889
  H     -1.244491    12.008137     0.845996
  H     -2.510000     9.838049     0.711111
  H     14.037107    14.460366    -0.220671
  H     11.525000    14.471284    -0.355556
  H     19.541597     9.830765    -0.576226
  H     18.295000    12.011772    -0.711111
  H     17.420000     1.229756    -1.422222
  H     16.154491    -0.940333    -1.287337
  H      0.875000    -3.403480     1.600000
  H      3.079908    -3.459014     1.962684
  H     -4.631597     1.237040     1.557107
  H     -3.374491    -0.940333     1.287337
  H      5.517107    14.460366     0.490440
  H      3.005000    14.471284     0.355556
  H      9.777107    14.460366     0.134885
  H      7.265000    14.471284    -0.000000
  H     19.550000     4.919024    -1.066667
  H     18.284491     2.748935    -0.931782
  H      9.395000    -3.403480    -1.600000
  H     11.905000    -3.403480    -1.600000
  H     -3.374491     8.318869     1.201551
  H     -4.640000     6.148780     1.066667
  H     -1.255000     2.173724    -1.600000
  H      1.255000    -2.173724    -1.600000
  H      5.515000     2.173724    -1.600000
  H      3.005000    -2.173724    -1.600000
  H     11.017987    -7.368118     0.798953
  H      6.022013    -7.368118     0.798953
  H      5.150029    -8.899276     0.372286
  H      7.648016   -13.225915     0.372286
  H     -0.871984    -8.909694    -0.481047
  H     -3.369971   -13.236334    -0.481047
  H     -1.762013    -7.388955    -0.907714
  H     -6.757987    -7.388955    -0.907714
  H      7.645000    -3.403480    -1.600000
  H      5.135000    -3.403480    -1.600000
  H      4.065835    -3.934230     0.829371
  H      5.135000    -5.862992     1.386667
  H      3.388016    -8.909694    -0.054381
  H      0.875000    -8.894081     0.106667
  H      0.380000    -3.689268    -1.173333
  H     -0.890029    -5.857797    -1.334381
  H     -3.369971     0.938773    -1.225619
  H     -4.627987    -1.240174    -1.547714
  H      3.385000     3.403480    -1.600000
  H      0.875000     3.403480    -1.600000
  H     11.030000    -4.919024     1.173333
  H      9.759971    -2.750495     1.012286
  H     11.017987    -9.827630     0.585619
  H      9.775000   -12.011772     0.746667
  H     -1.255000   -14.471284    -0.106667
  H      1.258016   -14.455672    -0.267714
  H     -6.770000    -9.838049    -0.533333
  H     -5.499971   -12.006578    -0.694381
  H      3.005000   -14.471284     0.320000
  H      5.518016   -14.455672     0.158953
  H     -5.515000    -2.745301    -0.960000
  H     -6.757987    -4.929443    -1.121047
