252
C-infinitene <2,4,2,4,2,4|4,6,2,4,6,2>(0) EHMO: -240.75465282
  C      3.550000    11.067805     0.000000
  C      2.840000    12.297561     0.000000
  C      1.420000    12.297561    -0.228571
  C      0.710000    11.067805    -0.228571
  C      1.420000     9.838049    -0.228571
  C      2.840000     9.838049    -0.228571
  C      7.810000    11.067805     0.457143
  C      7.100000    12.297561     0.228571
  C      5.680000    12.297561     0.228571
  C      4.970000    11.067805     0.228571
  C      5.680000     9.838049     0.228571
  C      7.100000     9.838049     0.457143
  C     12.070000     3.689268     1.142857
  C     11.360000     4.919024     1.142857
  C      9.940000     4.919024     1.142857
  C      9.230000     3.689268     1.142857
  C      9.940000     2.459512     1.371429
  C     11.360000     2.459512     1.371429
  C      9.940000     0.000000    -1.600000
  C      9.230000     1.229756    -1.600000
  C      7.810000     1.229756    -1.600000
  C      7.100000     0.000000    -1.600000
  C      7.810000    -1.229756    -1.600000
  C      9.230000    -1.229756    -1.600000
  C      1.420000     0.000000    -1.600000
  C      0.710000     1.229756    -1.600000
  C     -0.710000     1.229756    -1.600000
  C     -1.420000     0.000000    -1.600000
  C     -0.710000    -1.229756    -1.600000
  C      0.710000    -1.229756    -1.600000
  C     -0.710000     3.689268    -1.142857
  C     -1.420000     4.919024    -0.914286
  C     -2.840000     4.919024    -0.914286
  C     -3.550000     3.689268    -1.142857
  C     -2.840000     2.459512    -1.142857
  C     -1.420000     2.459512    -1.142857
  C      9.940000     7.378536     0.914286
  C      9.230000     8.608293     0.685714
  C      7.810000     8.608293     0.685714
  C      7.100000     7.378536     0.685714
  C      7.810000     6.148780     0.685714
  C      9.230000     6.148780     0.914286
  C      5.680000     0.000000    -1.600000
  C      4.970000     1.229756    -1.600000
  C      3.550000     1.229756    -1.600000
  C      2.840000     0.000000    -1.600000
  C      3.550000    -1.229756    -1.600000
  C      4.970000    -1.229756    -1.600000
  C      1.420000     7.378536    -0.685714
  C      0.710000     8.608293    -0.457143
  C     -0.710000     8.608293    -0.457143
  C     -1.420000     7.378536    -0.685714
  C     -0.710000     6.148780    -0.685714
  C      0.710000     6.148780    -0.685714
  C     -0.710000    11.067805    -0.457143
  C     -1.420000     9.838049    -0.457143
  C      4.970000    13.527317     0.000000
  C      3.550000    13.527317     0.000000
  C     12.070000     6.148780     0.914286
  C     11.360000     7.378536     0.914286
  C     12.070000     1.229756     1.371429
  C     11.360000    -0.000000     1.371429
  C      1.420000    -2.459512    -1.600000
  C      2.840000    -2.459512    -1.600000
  C     -3.550000     1.229756    -1.371429
  C     -2.840000     0.000000    -1.371429
  C      9.940000     9.838049     0.457143
  C      9.230000    11.067805     0.457143
  C      5.680000    -2.459512    -1.600000
  C      7.100000    -2.459512    -1.600000
  C     -2.840000     7.378536    -0.914286
  C     -3.550000     6.148780    -0.914286
  C      1.420000     0.000000     1.600000
  C      0.710000     1.229756     1.600000
  C     -0.710000     1.229756     1.600000
  C     -1.420000     0.000000     1.600000
  C     -0.710000    -1.229756     1.600000
  C      0.710000    -1.229756     1.600000
  C      9.940000     0.000000     1.600000
  C      9.230000     1.229756     1.600000
  C      7.810000     1.229756     1.600000
  C      7.100000     0.000000     1.600000
  C      7.810000    -1.229756     1.600000
  C      9.230000    -1.229756     1.600000
  C     16.330000   -11.067805    -0.640000
  C     15.620000    -9.838049    -0.800000
  C     14.200000    -9.838049    -0.800000
  C     13.490000   -11.067805    -0.640000
  C     14.200000   -12.297561    -0.640000
  C     15.620000   -12.297561    -0.640000
  C     14.200000   -14.757073    -0.480000
  C     13.490000   -13.527317    -0.480000
  C     12.070000   -13.527317    -0.320000
  C     11.360000   -14.757073    -0.320000
  C     12.070000   -15.986829    -0.320000
  C     13.490000   -15.986829    -0.320000
  C      5.680000   -14.757073     0.160000
  C      4.970000   -13.527317     0.320000
  C      3.550000   -13.527317     0.320000
  C      2.840000   -14.757073     0.320000
  C      3.550000   -15.986829     0.320000
  C      4.970000   -15.986829     0.160000
  C     -0.710000    -3.689268     1.280000
  C     -1.420000    -2.459512     1.280000
  C     -2.840000    -2.459512     1.280000
  C     -3.550000    -3.689268     1.280000
  C     -2.840000    -4.919024     1.120000
  C     -1.420000    -4.919024     1.120000
  C      5.680000     0.000000     1.600000
  C      4.970000     1.229756     1.600000
  C      3.550000     1.229756     1.600000
  C      2.840000     0.000000     1.600000
  C      3.550000    -1.229756     1.600000
  C      4.970000    -1.229756     1.600000
  C     12.070000    -3.689268    -1.280000
  C     11.360000    -2.459512    -1.440000
  C      9.940000    -2.459512    -1.440000
  C      9.230000    -3.689268    -1.280000
  C      9.940000    -4.919024    -1.280000
  C     11.360000    -4.919024    -1.280000
  C     14.200000    -7.378536    -0.960000
  C     13.490000    -6.148780    -1.120000
  C     12.070000    -6.148780    -1.120000
  C     11.360000    -7.378536    -0.960000
  C     12.070000    -8.608293    -0.960000
  C     13.490000    -8.608293    -0.960000
  C      9.940000   -14.757073    -0.160000
  C      9.230000   -13.527317     0.000000
  C      7.810000   -13.527317     0.000000
  C      7.100000   -14.757073     0.000000
  C      7.810000   -15.986829     0.000000
  C      9.230000   -15.986829    -0.160000
  C      3.550000   -11.067805     0.640000
  C      2.840000    -9.838049     0.640000
  C      1.420000    -9.838049     0.640000
  C      0.710000   -11.067805     0.640000
  C      1.420000   -12.297561     0.480000
  C      2.840000   -12.297561     0.480000
  C      1.420000    -7.378536     0.960000
  C      0.710000    -6.148780     0.960000
  C     -0.710000    -6.148780     0.960000
  C     -1.420000    -7.378536     0.960000
  C     -0.710000    -8.608293     0.800000
  C      0.710000    -8.608293     0.800000
  C     -2.840000     0.000000     1.440000
  C     -3.550000    -1.229756     1.440000
  C      7.100000     2.459512     1.600000
  C      5.680000     2.459512     1.600000
  C     16.330000    -8.608293    -0.800000
  C     15.620000    -7.378536    -0.800000
  C     16.330000   -13.527317    -0.480000
  C     15.620000   -14.757073    -0.480000
  C      5.680000   -17.216585     0.160000
  C      7.100000   -17.216585     0.160000
  C     -3.550000    -6.148780     1.120000
  C     -2.840000    -7.378536     1.120000
  C      2.840000     2.459512     1.600000
  C      1.420000     2.459512     1.600000
  C     12.070000    -1.229756    -1.440000
  C     11.360000    -0.000000    -1.440000
  C     14.200000    -4.919024    -1.120000
  C     13.490000    -3.689268    -1.120000
  C      9.940000   -17.216585    -0.160000
  C     11.360000   -17.216585    -0.160000
  C      0.710000   -13.527317     0.480000
  C      1.420000   -14.757073     0.480000
  C     -1.420000    -9.838049     0.800000
  C     -0.710000   -11.067805     0.800000
  H      0.892196    13.235587    -0.400704
  H      3.388452     8.911944    -0.400704
  H      7.648452    13.223666     0.056439
  H      5.152196     8.900023     0.056439
  H     13.146257     3.677347     0.970725
  H      8.306125     3.834581     0.583000
  H      9.775000     2.173724    -1.600000
  H      7.265000     2.173724    -1.600000
  H      1.255000     2.173724    -1.600000
  H     -1.255000    -2.173724    -1.600000
  H      0.366257     3.701189    -1.314990
  H     -4.626257     3.701189    -1.314990
  H      6.010000     7.378536     0.685714
  H      7.282196     5.210754     0.513582
  H      5.515000     2.173724    -1.600000
  H      3.005000     2.173724    -1.600000
  H      2.496257     7.390457    -0.857847
  H      1.255000     5.204813    -0.685714
  H     -1.237804    12.005831    -0.629275
  H     -2.510000     9.838049    -0.457143
  H      5.518452    14.453422    -0.172133
  H      3.005000    14.471284     0.000000
  H     13.146257     6.136859     0.742153
  H     11.905000     8.322504     0.914286
  H     13.160000     1.229756     1.371429
  H     11.887804    -0.938026     1.199296
  H      0.875000    -3.403480    -1.600000
  H      3.385000    -3.403480    -1.600000
  H     -4.626257     1.241677    -1.543561
  H     -3.367804    -0.938026    -1.199296
  H     11.016257     9.826128     0.285010
  H      9.775000    12.011772     0.457143
  H      5.135000    -3.403480    -1.600000
  H      7.359247    -3.440349    -1.998561
  H     -3.367804     8.316562    -1.086418
  H     -4.640000     6.148780    -0.914286
  H     -1.255000     2.173724     1.600000
  H      1.255000    -2.173724     1.600000
  H      7.265000    -2.173724     1.600000
  H      9.775000    -2.173724     1.600000
  H     17.413173   -11.061887    -0.518337
  H     12.406827   -11.061887    -0.518337
  H     11.533538   -12.586303    -0.198337
  H     14.036711   -16.921925    -0.198337
  H      5.516711   -12.592220     0.441663
  H      3.013538   -16.927843     0.441663
  H      0.373173    -3.695185     1.401663
  H     -4.633173    -3.695185     1.401663
  H      3.005000    -2.173724     1.600000
  H      5.515000    -2.173724     1.600000
  H      8.313315    -3.927227    -0.740403
  H      9.395000    -5.862992    -1.280000
  H     10.276827    -7.372619    -0.838337
  H     11.525000    -9.552260    -0.960000
  H      9.776711   -12.592220     0.121663
  H      7.265000   -12.583349     0.000000
  H      4.633173   -11.073722     0.761663
  H      3.385000    -8.894081     0.640000
  H      2.503173    -7.384454     1.081663
  H      1.255000    -5.204813     0.960000
  H     -3.376462     0.941014     1.318337
  H     -4.633173    -1.235673     1.561663
  H      7.444561     3.421783     1.978698
  H      5.135000     3.403480     1.600000
  H     17.420000    -8.608293    -0.800000
  H     16.156462    -6.437523    -0.678337
  H     17.413173   -13.521400    -0.358337
  H     16.165000   -15.701041    -0.480000
  H      5.135000   -18.160553     0.160000
  H      7.646711   -18.151682     0.281663
  H     -4.640000    -6.148780     1.120000
  H     -3.376462    -8.319550     1.241663
  H      3.385000     3.403480     1.600000
  H      0.875000     3.403480     1.600000
  H     13.160000    -1.229756    -1.440000
  H     11.896462     0.941014    -1.318337
  H     15.290000    -4.919024    -1.120000
  H     14.026462    -2.748255    -0.998337
  H      9.395000   -18.160553    -0.160000
  H     11.906711   -18.151682    -0.038337
  H     -0.380000   -13.527317     0.480000
  H      0.883538   -15.698087     0.601663
  H     -2.510000    -9.838049     0.800000
  H     -1.246462   -12.008818     0.921663
