192
C-infinitene <2,2,2,2,2,2|2,2,6,2,2,6>(2) EHMO: -183.18776550
  C      1.420000     7.378536     0.177778
  C      0.710000     8.608293     0.177778
  C     -0.710000     8.608293    -0.177778
  C     -1.420000     7.378536    -0.177778
  C     -0.710000     6.148780    -0.177778
  C      0.710000     6.148780    -0.177778
  C      5.680000     7.378536     0.888889
  C      4.970000     8.608293     0.533333
  C      3.550000     8.608293     0.533333
  C      2.840000     7.378536     0.533333
  C      3.550000     6.148780     0.533333
  C      4.970000     6.148780     0.888889
  C      7.810000     3.689268     1.244444
  C      7.100000     4.919024     1.244444
  C      5.680000     4.919024     1.244444
  C      4.970000     3.689268     1.244444
  C      5.680000     2.459512    -1.600000
  C      7.100000     2.459512    -1.600000
  C      5.680000    -0.000000    -1.600000
  C      4.970000     1.229756    -1.600000
  C      3.550000     1.229756    -1.600000
  C      2.840000    -0.000000    -1.600000
  C      3.550000    -1.229756    -1.600000
  C      4.970000    -1.229756    -1.600000
  C      1.420000    -0.000000    -1.600000
  C      0.710000     1.229756    -1.600000
  C     -0.710000     1.229756    -1.600000
  C     -1.420000    -0.000000    -1.600000
  C     -0.710000    -1.229756    -1.600000
  C      0.710000    -1.229756    -1.600000
  C     -0.710000     3.689268    -0.888889
  C     -1.420000     4.919024    -0.533333
  C     -2.840000     4.919024    -0.533333
  C     -3.550000     3.689268    -0.888889
  C     -2.840000     2.459512    -0.888889
  C     -1.420000     2.459512    -0.888889
  C     -2.840000     7.378536    -0.533333
  C     -3.550000     6.148780    -0.533333
  C      2.840000     9.838049     0.177778
  C      1.420000     9.838049     0.177778
  C      7.810000     6.148780     0.888889
  C      7.100000     7.378536     0.888889
  C      7.810000     1.229756    -1.600000
  C      7.100000    -0.000000    -1.600000
  C      1.420000    -2.459512    -1.600000
  C      2.840000    -2.459512    -1.600000
  C     -3.550000     1.229756    -1.244444
  C     -2.840000     0.000000    -1.244444
  C      5.680000    -0.000000     1.600000
  C      4.970000     1.229756     1.600000
  C      3.550000     1.229756     1.600000
  C      2.840000    -0.000000     1.600000
  C      3.550000    -1.229756     1.600000
  C      4.970000    -1.229756     1.600000
  C      9.940000    -0.000000    -1.431579
  C      9.230000     1.229756    -1.431579
  C      7.810000     1.229756     1.600000
  C      7.100000    -0.000000     1.600000
  C      7.810000    -1.229756    -1.431579
  C      9.230000    -1.229756    -1.431579
  C     12.070000    -3.689268    -1.094737
  C     11.360000    -2.459512    -1.263158
  C      9.940000    -2.459512    -1.263158
  C      9.230000    -3.689268    -1.094737
  C      9.940000    -4.919024    -1.094737
  C     11.360000    -4.919024    -1.094737
  C      5.680000   -14.757073    -0.252632
  C      4.970000   -13.527317    -0.252632
  C      3.550000   -13.527317    -0.084211
  C      2.840000   -14.757073    -0.084211
  C      3.550000   -15.986829    -0.084211
  C      4.970000   -15.986829    -0.084211
  C      1.420000   -14.757073     0.084211
  C      0.710000   -13.527317     0.252632
  C     -0.710000   -13.527317     0.252632
  C     -1.420000   -14.757073     0.252632
  C     -0.710000   -15.986829     0.252632
  C      0.710000   -15.986829     0.084211
  C     -0.710000   -11.067805     0.589474
  C     -1.420000    -9.838049     0.589474
  C     -2.840000    -9.838049     0.589474
  C     -3.550000   -11.067805     0.589474
  C     -2.840000   -12.297561     0.421053
  C     -1.420000   -12.297561     0.421053
  C      9.940000    -7.378536    -0.926316
  C      9.230000    -6.148780    -0.926316
  C      7.810000    -6.148780    -0.757895
  C      7.100000    -7.378536    -0.757895
  C      7.810000    -8.608293    -0.757895
  C      9.230000    -8.608293    -0.757895
  C      7.810000   -11.067805    -0.589474
  C      7.100000    -9.838049    -0.589474
  C      5.680000    -9.838049    -0.421053
  C      4.970000   -11.067805    -0.421053
  C      5.680000   -12.297561    -0.421053
  C      7.100000   -12.297561    -0.421053
  C      1.420000    -7.378536     0.926316
  C      0.710000    -6.148780     0.926316
  C     -0.710000    -6.148780     0.926316
  C     -1.420000    -7.378536     0.757895
  C     -0.710000    -8.608293     0.757895
  C      0.710000    -8.608293     0.926316
  C      3.550000    -3.689268     1.263158
  C      2.840000    -2.459512     1.263158
  C      1.420000    -2.459512     1.263158
  C      0.710000    -3.689268     1.094737
  C      1.420000    -4.919024     1.094737
  C      2.840000    -4.919024     1.263158
  C      1.420000     0.000000     1.431579
  C      0.710000    -1.229756     1.431579
  C      7.100000     2.459512     1.600000
  C      5.680000     2.459512     1.600000
  C     12.070000    -1.229756    -1.263158
  C     11.360000    -0.000000    -1.263158
  C      7.810000   -13.527317    -0.252632
  C      7.100000   -14.757073    -0.252632
  C      1.420000   -17.216585     0.084211
  C      2.840000   -17.216585     0.084211
  C     -3.550000   -13.527317     0.421053
  C     -2.840000   -14.757073     0.421053
  C     12.070000    -6.148780    -0.926316
  C     11.360000    -7.378536    -0.926316
  C      9.940000    -9.838049    -0.589474
  C      9.230000   -11.067805    -0.589474
  C     -2.840000    -7.378536     0.757895
  C     -3.550000    -8.608293     0.757895
  C     -0.710000    -3.689268     1.094737
  C     -1.420000    -4.919024     1.094737
  H     -1.214854     9.538436    -0.438654
  H      1.263100     5.246492    -0.438654
  H      5.523100     9.510581     0.272458
  H      3.045146     5.218637     0.272458
  H      8.867955     3.661413     0.983569
  H      3.912045     3.661413     0.983569
  H      5.135000     3.403480    -1.600000
  H      7.645000     3.403480    -1.600000
  H      3.005000     2.173724    -1.600000
  H      5.515000    -2.173724    -1.600000
  H      1.255000     2.173724    -1.600000
  H     -1.255000    -2.173724    -1.600000
  H      0.347955     3.717123    -1.149765
  H     -4.607955     3.717123    -1.149765
  H     -3.344854     8.308679    -0.794209
  H     -4.640000     6.148780    -0.533333
  H      3.393100    10.740337    -0.083098
  H      0.875000    10.782016     0.177778
  H      8.867955     6.120926     0.628013
  H      7.645000     8.322504     0.888889
  H      0.875000    -3.403480    -1.600000
  H      3.385000    -3.403480    -1.600000
  H     -4.607955     1.257611    -1.505320
  H     -3.344854    -0.930143    -0.983569
  H      3.005000     2.173724     1.600000
  H      5.515000    -2.173724     1.600000
  H      9.765553     2.170456    -1.303642
  H      8.900000     1.229756     1.600000
  H      7.645000    -0.943968     1.600000
  H      7.263107    -2.163908    -1.303642
  H     13.152446    -3.682721    -0.966800
  H      8.147554    -3.682721    -0.966800
  H      3.014447   -12.586617     0.043726
  H      5.516893   -16.920981     0.043726
  H      1.256893   -12.593165     0.380568
  H     -1.245553   -16.927529     0.380568
  H      0.372446   -11.074352     0.717410
  H     -4.632446   -11.074352     0.717410
  H      7.274447    -5.208081    -0.629958
  H      6.010000    -7.378536    -0.757895
  H      5.144447    -8.897349    -0.293116
  H      3.880000   -11.067805    -0.421053
  H      2.510000    -7.378536     0.926316
  H      1.245553    -9.548992     1.054252
  H      4.640000    -3.689268     1.263158
  H      3.375553    -5.859724     1.391095
  H      0.884447     0.940700     1.303642
  H     -0.372446    -1.236304     1.559516
  H     13.160000    -1.229756    -1.263158
  H     11.895553     0.940700    -1.135221
  H      8.892446   -13.520769    -0.124695
  H      7.645000   -15.701041    -0.252632
  H      0.875000   -18.160553     0.084211
  H      3.386893   -18.150737     0.212147
  H     -4.640000   -13.527317     0.421053
  H     -3.375553   -15.697772     0.548989
  H     13.152446    -6.142233    -0.798379
  H     11.905000    -8.322504    -0.926316
  H     11.022446    -9.831501    -0.461537
  H      9.775000   -12.011772    -0.589474
  H     -3.385000    -6.434569     0.757895
  H     -4.632446    -8.614840     0.885831
  H     -1.255000    -2.745301     1.094737
  H     -2.502446    -4.925572     1.222673
