252
C-infinitene <2,4,2,4,2,4|4,6,2,4,6,2>(4) EHMO: -240.62785074
  C      3.550000    11.067805     0.123077
  C      2.840000    12.297561     0.123077
  C      1.420000    12.297561    -0.123077
  C      0.710000    11.067805    -0.123077
  C      1.420000     9.838049    -0.123077
  C      2.840000     9.838049    -0.123077
  C      7.810000    11.067805     0.615385
  C      7.100000    12.297561     0.369231
  C      5.680000    12.297561     0.369231
  C      4.970000    11.067805     0.369231
  C      5.680000     9.838049     0.369231
  C      7.100000     9.838049     0.615385
  C     12.070000     3.689268     1.353846
  C     11.360000     4.919024     1.353846
  C      9.940000     4.919024     1.353846
  C      9.230000     3.689268     1.353846
  C      9.940000     2.459512    -1.600000
  C     11.360000     2.459512    -1.600000
  C      9.940000     0.000000    -1.600000
  C      9.230000     1.229756    -1.600000
  C      7.810000     1.229756    -1.600000
  C      7.100000     0.000000    -1.600000
  C      7.810000    -1.229756    -1.600000
  C      9.230000    -1.229756    -1.600000
  C      1.420000     0.000000    -1.600000
  C      0.710000     1.229756    -1.600000
  C     -0.710000     1.229756    -1.600000
  C     -1.420000     0.000000    -1.600000
  C     -0.710000    -1.229756    -1.600000
  C      0.710000    -1.229756    -1.600000
  C     -0.710000     3.689268    -1.107692
  C     -1.420000     4.919024    -0.861538
  C     -2.840000     4.919024    -0.861538
  C     -3.550000     3.689268    -1.107692
  C     -2.840000     2.459512    -1.107692
  C     -1.420000     2.459512    -1.107692
  C      9.940000     7.378536     1.107692
  C      9.230000     8.608293     0.861538
  C      7.810000     8.608293     0.861538
  C      7.100000     7.378536     0.861538
  C      7.810000     6.148780     0.861538
  C      9.230000     6.148780     1.107692
  C      5.680000     0.000000    -1.600000
  C      4.970000     1.229756    -1.600000
  C      3.550000     1.229756    -1.600000
  C      2.840000     0.000000    -1.600000
  C      3.550000    -1.229756    -1.600000
  C      4.970000    -1.229756    -1.600000
  C      1.420000     7.378536    -0.615385
  C      0.710000     8.608293    -0.369231
  C     -0.710000     8.608293    -0.369231
  C     -1.420000     7.378536    -0.615385
  C     -0.710000     6.148780    -0.615385
  C      0.710000     6.148780    -0.615385
  C     -0.710000    11.067805    -0.369231
  C     -1.420000     9.838049    -0.369231
  C      4.970000    13.527317     0.123077
  C      3.550000    13.527317     0.123077
  C     12.070000     6.148780     1.107692
  C     11.360000     7.378536     1.107692
  C     12.070000     1.229756    -1.600000
  C     11.360000    -0.000000    -1.600000
  C      1.420000    -2.459512    -1.600000
  C      2.840000    -2.459512    -1.600000
  C     -3.550000     1.229756    -1.353846
  C     -2.840000     0.000000    -1.353846
  C      9.940000     9.838049     0.615385
  C      9.230000    11.067805     0.615385
  C      5.680000    -2.459512    -1.600000
  C      7.100000    -2.459512    -1.600000
  C     -2.840000     7.378536    -0.861538
  C     -3.550000     6.148780    -0.861538
  C      9.940000     0.000000     1.600000
  C      9.230000     1.229756     1.600000
  C      7.810000     1.229756     1.600000
  C      7.100000     0.000000     1.600000
  C      7.810000    -1.229756     1.600000
  C      9.230000    -1.229756     1.600000
  C     18.460000     0.000000    -1.182609
  C     17.750000     1.229756    -1.182609
  C     16.330000     1.229756    -1.321739
  C     15.620000     0.000000    -1.321739
  C     16.330000    -1.229756    -1.182609
  C     17.750000    -1.229756    -1.182609
  C     24.850000   -11.067805    -0.347826
  C     24.140000    -9.838049    -0.486957
  C     22.720000    -9.838049    -0.486957
  C     22.010000   -11.067805    -0.347826
  C     22.720000   -12.297561    -0.347826
  C     24.140000   -12.297561    -0.347826
  C     22.720000   -14.757073    -0.208696
  C     22.010000   -13.527317    -0.208696
  C     20.590000   -13.527317    -0.069565
  C     19.880000   -14.757073    -0.069565
  C     20.590000   -15.986829    -0.069565
  C     22.010000   -15.986829    -0.069565
  C     14.200000   -14.757073     0.347826
  C     13.490000   -13.527317     0.486957
  C     12.070000   -13.527317     0.486957
  C     11.360000   -14.757073     0.486957
  C     12.070000   -15.986829     0.486957
  C     13.490000   -15.986829     0.347826
  C      7.810000    -3.689268     1.321739
  C      7.100000    -2.459512     1.321739
  C      5.680000    -2.459512     1.321739
  C      4.970000    -3.689268     1.321739
  C      5.680000    -4.919024     1.182609
  C      7.100000    -4.919024     1.182609
  C     14.200000     0.000000    -1.460870
  C     13.490000     1.229756    -1.460870
  C     12.070000     1.229756     1.600000
  C     11.360000     0.000000     1.600000
  C     12.070000    -1.229756    -1.460870
  C     13.490000    -1.229756    -1.460870
  C     20.590000    -3.689268    -0.904348
  C     19.880000    -2.459512    -1.043478
  C     18.460000    -2.459512    -1.043478
  C     17.750000    -3.689268    -0.904348
  C     18.460000    -4.919024    -0.904348
  C     19.880000    -4.919024    -0.904348
  C     22.720000    -7.378536    -0.626087
  C     22.010000    -6.148780    -0.765217
  C     20.590000    -6.148780    -0.765217
  C     19.880000    -7.378536    -0.626087
  C     20.590000    -8.608293    -0.626087
  C     22.010000    -8.608293    -0.626087
  C     18.460000   -14.757073     0.069565
  C     17.750000   -13.527317     0.208696
  C     16.330000   -13.527317     0.208696
  C     15.620000   -14.757073     0.208696
  C     16.330000   -15.986829     0.208696
  C     17.750000   -15.986829     0.069565
  C     12.070000   -11.067805     0.765217
  C     11.360000    -9.838049     0.765217
  C      9.940000    -9.838049     0.765217
  C      9.230000   -11.067805     0.765217
  C      9.940000   -12.297561     0.626087
  C     11.360000   -12.297561     0.626087
  C      9.940000    -7.378536     1.043478
  C      9.230000    -6.148780     1.043478
  C      7.810000    -6.148780     1.043478
  C      7.100000    -7.378536     1.043478
  C      7.810000    -8.608293     0.904348
  C      9.230000    -8.608293     0.904348
  C      5.680000     0.000000     1.460870
  C      4.970000    -1.229756     1.460870
  C     15.620000     2.459512    -1.321739
  C     14.200000     2.459512    -1.321739
  C     24.850000    -8.608293    -0.486957
  C     24.140000    -7.378536    -0.486957
  C     24.850000   -13.527317    -0.208696
  C     24.140000   -14.757073    -0.208696
  C     14.200000   -17.216585     0.347826
  C     15.620000   -17.216585     0.347826
  C      4.970000    -6.148780     1.182609
  C      5.680000    -7.378536     1.182609
  C     11.360000     2.459512     1.600000
  C      9.940000     2.459512     1.600000
  C     20.590000    -1.229756    -1.043478
  C     19.880000    -0.000000    -1.043478
  C     22.720000    -4.919024    -0.765217
  C     22.010000    -3.689268    -0.765217
  C     18.460000   -17.216585     0.069565
  C     19.880000   -17.216585     0.069565
  C      9.230000   -13.527317     0.626087
  C      9.940000   -14.757073     0.626087
  C      7.100000    -9.838049     0.904348
  C      7.810000   -11.067805     0.904348
  H      0.894861    13.234668    -0.307897
  H      3.388990     8.914711    -0.307897
  H      7.648990    13.220898     0.184411
  H      5.154861     8.900941     0.184411
  H     13.144129     3.675498     1.169027
  H      8.155871     3.675498     1.169027
  H      9.395000     3.403480    -1.600000
  H     11.905000     3.403480    -1.600000
  H      7.265000     2.173724    -1.600000
  H      9.775000    -2.173724    -1.600000
  H      1.255000     2.173724    -1.600000
  H     -1.255000    -2.173724    -1.600000
  H      0.364129     3.703038    -1.292512
  H     -4.624129     3.703038    -1.292512
  H      6.010000     7.378536     0.861538
  H      7.284861     5.211673     0.676719
  H      5.515000     2.173724    -1.600000
  H      3.005000     2.173724    -1.600000
  H      2.494129     7.392307    -0.800204
  H      1.255000     5.204813    -0.615385
  H     -1.235139    12.004912    -0.554050
  H     -2.510000     9.838049    -0.369231
  H      5.518990    14.450654    -0.061743
  H      3.005000    14.471284     0.123077
  H     13.144129     6.135010     0.922873
  H     11.905000     8.322504     1.107692
  H      0.875000    -3.403480    -1.600000
  H      3.385000    -3.403480    -1.600000
  H     -4.624129     1.243526    -1.538666
  H     -3.365139    -0.937108    -1.169027
  H     11.014129     9.824278     0.430565
  H      9.775000    12.011772     0.615385
  H      5.135000    -3.403480    -1.600000
  H      7.645000    -3.403480    -1.600000
  H     -3.365139     8.315644    -1.046358
  H     -4.640000     6.148780    -0.861538
  H      7.265000     2.173724     1.600000
  H      9.775000    -2.173724     1.600000
  H     18.288524     2.171482    -1.076573
  H     15.783703    -2.166994    -1.076573
  H     25.934821   -11.063317    -0.241790
  H     20.925179   -11.063317    -0.241790
  H     20.051476   -12.585590     0.036471
  H     22.556297   -16.924067     0.036471
  H     14.036297   -12.590078     0.592992
  H     11.531476   -16.928555     0.592992
  H      8.894821    -3.693756     1.427775
  H      3.885179    -3.693756     1.427775
  H     13.160000     1.229756     1.600000
  H     11.905000    -0.943968     1.600000
  H     11.523703    -2.166994    -1.354834
  H     14.035000    -2.173724    -1.460870
  H     16.665179    -3.684780    -0.798312
  H     17.915000    -5.862992    -0.904348
  H     18.795179    -7.374048    -0.520051
  H     20.045000    -9.552260    -0.626087
  H     18.296297   -12.590078     0.314732
  H     15.785000   -12.583349     0.208696
  H     13.154821   -11.072293     0.871253
  H     11.905000    -8.894081     0.765217
  H     11.024821    -7.383024     1.149514
  H      9.775000    -5.204813     1.043478
  H      5.141476     0.941726     1.354834
  H      3.885179    -1.234244     1.566906
  H     16.165000     3.403480    -1.321739
  H     13.653703     3.396751    -1.215703
  H     25.940000    -8.608293    -0.486957
  H     24.678524    -6.436810    -0.380921
  H     25.934821   -13.522829    -0.102660
  H     24.685000   -15.701041    -0.208696
  H     13.655000   -18.160553     0.347826
  H     16.166297   -18.153823     0.453862
  H      3.880000    -6.148780     1.182609
  H      5.141476    -8.320263     1.288645
  H     21.680000    -1.229756    -1.043478
  H     20.418524     0.941726    -0.937442
  H     23.810000    -4.919024    -0.765217
  H     22.548524    -2.747542    -0.659181
  H     17.915000   -18.160553     0.069565
  H     20.426297   -18.153823     0.175601
  H      8.140000   -13.527317     0.626087
  H      9.401476   -15.698799     0.732123
  H      6.010000    -9.838049     0.904348
  H      7.271476   -12.009531     1.010384
