192
C-infinitene <2,2,2,2,2,2|6,2,2,6,2,2>(0) EHMO: -183.17349000
  C      1.420000     7.378536     0.457143
  C      0.710000     8.608293     0.457143
  C     -0.710000     8.608293     0.685714
  C     -1.420000     7.378536     0.685714
  C     -0.710000     6.148780     0.685714
  C      0.710000     6.148780     0.685714
  C     14.200000     7.378536    -0.914286
  C     13.490000     8.608293    -0.685714
  C     12.070000     8.608293    -0.685714
  C     11.360000     7.378536    -0.685714
  C     12.070000     6.148780    -0.685714
  C     13.490000     6.148780    -0.914286
  C     16.330000     3.689268    -1.142857
  C     15.620000     4.919024    -1.142857
  C     14.200000     4.919024    -1.142857
  C     13.490000     3.689268    -1.142857
  C     14.200000     2.459512    -1.371429
  C     15.620000     2.459512    -1.371429
  C     14.200000    -0.000000    -1.600000
  C     13.490000     1.229756    -1.600000
  C     12.070000     1.229756    -1.600000
  C     11.360000    -0.000000    -1.600000
  C     12.070000    -1.229756    -1.600000
  C     13.490000    -1.229756    -1.600000
  C      1.420000    -0.000000     1.600000
  C      0.710000     1.229756     1.600000
  C     -0.710000     1.229756     1.600000
  C     -1.420000    -0.000000     1.600000
  C     -0.710000    -1.229756     1.600000
  C      0.710000    -1.229756     1.600000
  C     -0.710000     3.689268     1.142857
  C     -1.420000     4.919024     0.914286
  C     -2.840000     4.919024     0.914286
  C     -3.550000     3.689268     1.142857
  C     -2.840000     2.459512     1.142857
  C     -1.420000     2.459512     1.142857
  C      5.680000     7.378536    -0.000000
  C      4.970000     8.608293    -0.000000
  C      3.550000     8.608293     0.228571
  C      2.840000     7.378536     0.228571
  C      3.550000     6.148780     0.228571
  C      4.970000     6.148780     0.228571
  C      9.940000     7.378536    -0.457143
  C      9.230000     8.608293    -0.457143
  C      7.810000     8.608293    -0.228571
  C      7.100000     7.378536    -0.228571
  C      7.810000     6.148780    -0.228571
  C      9.230000     6.148780    -0.228571
  C      9.940000    -0.000000    -1.600000
  C      9.230000     1.229756    -1.600000
  C      7.810000     1.229756    -1.600000
  C      7.100000    -0.000000     1.600000
  C      7.810000    -1.229756     1.600000
  C      9.230000    -1.229756    -1.600000
  C      5.680000    -0.000000     1.600000
  C      4.970000     1.229756     1.600000
  C      3.550000     1.229756     1.600000
  C      2.840000    -0.000000     1.600000
  C      3.550000    -1.229756     1.600000
  C      4.970000    -1.229756     1.600000
  C     -2.840000     7.378536     0.914286
  C     -3.550000     6.148780     0.914286
  C     11.360000     9.838049    -0.457143
  C      9.940000     9.838049    -0.457143
  C     16.330000     6.148780    -0.914286
  C     15.620000     7.378536    -0.914286
  C     16.330000     1.229756    -1.371429
  C     15.620000    -0.000000    -1.371429
  C      1.420000    -2.459512     1.600000
  C      2.840000    -2.459512     1.600000
  C     -3.550000     1.229756     1.371429
  C     -2.840000     0.000000     1.371429
  C      2.840000     9.838049     0.457143
  C      1.420000     9.838049     0.457143
  C      7.100000     9.838049    -0.000000
  C      5.680000     9.838049    -0.000000
  C      9.940000    -2.459512    -1.600000
  C     11.360000    -2.459512    -1.600000
  C      5.680000    -2.459512     1.600000
  C      7.100000    -2.459512     1.600000
  C      1.420000     0.000000    -1.600000
  C      0.710000     1.229756    -1.600000
  C     -0.710000     1.229756    -1.600000
  C     -1.420000     0.000000    -1.600000
  C     -0.710000    -1.229756    -1.600000
  C      0.710000    -1.229756    -1.600000
  C      5.680000     0.000000    -1.600000
  C      4.970000     1.229756    -1.600000
  C      3.550000     1.229756    -1.600000
  C      2.840000     0.000000    -1.600000
  C      3.550000    -1.229756    -1.600000
  C      4.970000    -1.229756    -1.600000
  C      7.810000    -3.689268     1.244444
  C      7.100000    -2.459512    -1.600000
  C      5.680000    -2.459512    -1.600000
  C      4.970000    -3.689268     1.244444
  C      5.680000    -4.919024     1.244444
  C      7.100000    -4.919024     1.244444
  C      5.680000    -7.378536     0.888889
  C      4.970000    -6.148780     0.888889
  C      3.550000    -6.148780     0.533333
  C      2.840000    -7.378536     0.533333
  C      3.550000    -8.608293     0.533333
  C      4.970000    -8.608293     0.533333
  C      1.420000    -7.378536     0.177778
  C      0.710000    -6.148780    -0.177778
  C     -0.710000    -6.148780    -0.177778
  C     -1.420000    -7.378536    -0.177778
  C     -0.710000    -8.608293    -0.177778
  C      0.710000    -8.608293     0.177778
  C     -0.710000    -3.689268    -0.888889
  C     -1.420000    -2.459512    -0.888889
  C     -2.840000    -2.459512    -0.888889
  C     -3.550000    -3.689268    -0.888889
  C     -2.840000    -4.919024    -0.533333
  C     -1.420000    -4.919024    -0.533333
  C     -2.840000     0.000000    -1.244444
  C     -3.550000    -1.229756    -1.244444
  C      2.840000     2.459512    -1.600000
  C      1.420000     2.459512    -1.600000
  C      7.810000    -1.229756    -1.600000
  C      7.100000    -0.000000    -1.600000
  C      7.810000    -6.148780     0.888889
  C      7.100000    -7.378536     0.888889
  C      1.420000    -9.838049     0.177778
  C      2.840000    -9.838049     0.177778
  C     -3.550000    -6.148780    -0.533333
  C     -2.840000    -7.378536    -0.533333
  H     -1.237804     9.546319     0.857847
  H      1.258452     5.222675     0.857847
  H     14.038452     9.534398    -0.513582
  H     11.542196     5.210754    -0.513582
  H     17.406257     3.677347    -0.970725
  H     12.413743     3.677347    -0.970725
  H     11.525000     2.173724    -1.600000
  H     14.035000    -2.173724    -1.600000
  H      1.255000     2.173724     1.600000
  H     -1.255000    -2.173724     1.600000
  H      0.366257     3.701189     1.314990
  H     -4.626257     3.701189     1.314990
  H      3.005000     5.204813     0.228571
  H      5.518452     5.222675     0.400704
  H      7.265000     5.204813    -0.228571
  H      9.778452     5.222675    -0.056439
  H      9.775000     2.173724    -1.600000
  H      7.265000     2.173724    -1.600000
  H      7.645000     0.943968     1.600000
  H      8.900000    -1.229756     1.600000
  H      5.515000     2.173724     1.600000
  H      3.005000     2.173724     1.600000
  H     -3.367804     8.316562     1.086418
  H     -4.640000     6.148780     0.914286
  H     11.908452    10.764154    -0.285010
  H      9.395000    10.782016    -0.457143
  H     17.406257     6.136859    -0.742153
  H     16.165000     8.322504    -0.914286
  H     17.420000     1.229756    -1.371429
  H     16.147804    -0.938026    -1.199296
  H      0.875000    -3.403480     1.600000
  H      3.172501    -3.429156     1.970587
  H     -4.626257     1.241677     1.543561
  H     -3.367804    -0.938026     1.199296
  H      3.388452    10.764154     0.629275
  H      0.875000    10.782016     0.457143
  H      7.648452    10.764154     0.172133
  H      5.135000    10.782016    -0.000000
  H      9.395000    -3.403480    -1.600000
  H     11.905000    -3.403480    -1.600000
  H     -1.255000     2.173724    -1.600000
  H      1.255000    -2.173724    -1.600000
  H      5.515000     2.173724    -1.600000
  H      3.005000    -2.173724    -1.600000
  H      8.867955    -3.661413     0.983569
  H      7.645000    -3.403480    -1.600000
  H      5.135000    -3.403480    -1.600000
  H      4.097102    -3.805923     0.602151
  H      3.045146    -5.218637     0.272458
  H      5.523100    -9.510581     0.272458
  H      1.263100    -5.246492    -0.438654
  H     -1.214854    -9.538436    -0.438654
  H      0.347955    -3.717123    -1.149765
  H     -4.607955    -3.717123    -1.149765
  H     -3.344854     0.930143    -0.983569
  H     -4.607955    -1.257611    -1.505320
  H      3.385000     3.403480    -1.600000
  H      0.875000     3.403480    -1.600000
  H      8.867955    -6.120926     0.628013
  H      7.645000    -8.322504     0.888889
  H      0.875000   -10.782016     0.177778
  H      3.393100   -10.740337    -0.083098
  H     -4.640000    -6.148780    -0.533333
  H     -3.344854    -8.308679    -0.794209
