192
C-infinitene <2,2,2,2,2,2|4,2,4,4,2,4>(-4) EHMO: -183.16917560
  C      3.550000    11.067805     0.106667
  C      2.840000    12.297561     0.106667
  C      1.420000    12.297561     0.320000
  C      0.710000    11.067805     0.320000
  C      1.420000     9.838049     0.320000
  C      2.840000     9.838049     0.320000
  C     12.070000    11.067805    -0.746667
  C     11.360000    12.297561    -0.533333
  C      9.940000    12.297561    -0.533333
  C      9.230000    11.067805    -0.533333
  C      9.940000     9.838049    -0.533333
  C     11.360000     9.838049    -0.746667
  C     14.200000     7.378536    -0.960000
  C     13.490000     8.608293    -0.960000
  C     12.070000     8.608293    -0.960000
  C     11.360000     7.378536    -0.960000
  C     12.070000     6.148780    -1.173333
  C     13.490000     6.148780    -1.173333
  C      9.940000     0.000000     1.600000
  C      9.230000     1.229756     1.600000
  C      7.810000     1.229756     1.600000
  C      7.100000     0.000000     1.600000
  C      7.810000    -1.229756     1.600000
  C      9.230000    -1.229756     1.600000
  C      1.420000     0.000000     1.600000
  C      0.710000     1.229756     1.600000
  C     -0.710000     1.229756     1.600000
  C     -1.420000     0.000000     1.600000
  C     -0.710000    -1.229756     1.600000
  C      0.710000    -1.229756     1.600000
  C     -0.710000     3.689268     1.173333
  C     -1.420000     4.919024     0.960000
  C     -2.840000     4.919024     0.960000
  C     -3.550000     3.689268     1.173333
  C     -2.840000     2.459512     1.173333
  C     -1.420000     2.459512     1.173333
  C      7.810000    11.067805    -0.320000
  C      7.100000    12.297561    -0.320000
  C      5.680000    12.297561    -0.106667
  C      4.970000    11.067805    -0.106667
  C      5.680000     9.838049    -0.106667
  C      7.100000     9.838049    -0.106667
  C     12.070000     3.689268    -1.386667
  C     11.360000     4.919024    -1.386667
  C      9.940000     4.919024    -1.386667
  C      9.230000     3.689268    -1.386667
  C      9.940000     2.459512     1.600000
  C     11.360000     2.459512     1.600000
  C      5.680000     0.000000     1.600000
  C      4.970000     1.229756     1.600000
  C      3.550000     1.229756     1.600000
  C      2.840000     0.000000     1.600000
  C      3.550000    -1.229756     1.600000
  C      4.970000    -1.229756     1.600000
  C      1.420000     7.378536     0.746667
  C      0.710000     8.608293     0.533333
  C     -0.710000     8.608293     0.533333
  C     -1.420000     7.378536     0.746667
  C     -0.710000     6.148780     0.746667
  C      0.710000     6.148780     0.746667
  C     -0.710000    11.067805     0.533333
  C     -1.420000     9.838049     0.533333
  C      9.230000    13.527317    -0.320000
  C      7.810000    13.527317    -0.320000
  C     14.200000     9.838049    -0.746667
  C     13.490000    11.067805    -0.746667
  C     12.070000     1.229756     1.600000
  C     11.360000    -0.000000     1.600000
  C      1.420000    -2.459512     1.600000
  C      2.840000    -2.459512     1.600000
  C     -3.550000     1.229756     1.386667
  C     -2.840000     0.000000     1.386667
  C      4.970000    13.527317     0.106667
  C      3.550000    13.527317     0.106667
  C     14.200000     4.919024    -1.173333
  C     13.490000     3.689268    -1.173333
  C      5.680000    -2.459512     1.600000
  C      7.100000    -2.459512     1.600000
  C     -2.840000     7.378536     0.960000
  C     -3.550000     6.148780     0.960000
  C      9.940000     0.000000    -1.600000
  C      9.230000     1.229756    -1.600000
  C      7.810000     1.229756    -1.600000
  C      7.100000     0.000000    -1.600000
  C      7.810000    -1.229756    -1.600000
  C      9.230000    -1.229756    -1.600000
  C     14.200000     0.000000     1.309091
  C     13.490000     1.229756     1.309091
  C     12.070000     1.229756    -1.600000
  C     11.360000     0.000000    -1.600000
  C     12.070000    -1.229756     1.309091
  C     13.490000    -1.229756     1.309091
  C     16.330000    -3.689268     0.727273
  C     15.620000    -2.459512     1.018182
  C     14.200000    -2.459512     1.018182
  C     13.490000    -3.689268     0.727273
  C     14.200000    -4.919024     0.727273
  C     15.620000    -4.919024     0.727273
  C     14.200000    -7.378536     0.436364
  C     13.490000    -6.148780     0.436364
  C     12.070000    -6.148780     0.145455
  C     11.360000    -7.378536     0.145455
  C     12.070000    -8.608293     0.145455
  C     13.490000    -8.608293     0.145455
  C      9.940000    -7.378536    -0.145455
  C      9.230000    -6.148780    -0.436364
  C      7.810000    -6.148780    -0.436364
  C      7.100000    -7.378536    -0.436364
  C      7.810000    -8.608293    -0.436364
  C      9.230000    -8.608293    -0.145455
  C      7.810000    -3.689268    -1.018182
  C      7.100000    -2.459512    -1.018182
  C      5.680000    -2.459512    -1.018182
  C      4.970000    -3.689268    -1.018182
  C      5.680000    -4.919024    -0.727273
  C      7.100000    -4.919024    -0.727273
  C      5.680000     0.000000    -1.309091
  C      4.970000    -1.229756    -1.309091
  C     11.360000     2.459512    -1.600000
  C      9.940000     2.459512    -1.600000
  C     16.330000    -1.229756     1.018182
  C     15.620000    -0.000000     1.018182
  C     16.330000    -6.148780     0.436364
  C     15.620000    -7.378536     0.436364
  C      9.940000    -9.838049    -0.145455
  C     11.360000    -9.838049    -0.145455
  C      4.970000    -6.148780    -0.727273
  C      5.680000    -7.378536    -0.727273
  H      0.890029    13.236334     0.481047
  H      3.388016     8.909694     0.481047
  H     11.908016    13.225915    -0.372286
  H      9.410029     8.899276    -0.372286
  H     15.277987     7.368118    -0.798953
  H     10.282013     7.368118    -0.798953
  H      7.265000     2.173724     1.600000
  H      9.775000    -2.173724     1.600000
  H      1.255000     2.173724     1.600000
  H     -1.255000    -2.173724     1.600000
  H      0.367987     3.699686     1.334381
  H     -4.627987     3.699686     1.334381
  H      5.135000     8.894081    -0.106667
  H      7.648016     8.909694     0.054381
  H      9.395000     5.862992    -1.386667
  H      8.152013     3.678850    -1.225619
  H      9.395000     3.403480     1.600000
  H     11.905000     3.403480     1.600000
  H      5.515000     2.173724     1.600000
  H      3.005000     2.173724     1.600000
  H      2.497987     7.388955     0.907714
  H      1.255000     5.204813     0.746667
  H     -1.239971    12.006578     0.694381
  H     -2.510000     9.838049     0.533333
  H      9.778016    14.455672    -0.158953
  H      7.265000    14.471284    -0.320000
  H     15.277987     9.827630    -0.585619
  H     14.035000    12.011772    -0.746667
  H      0.875000    -3.403480     1.600000
  H      3.385000    -3.403480     1.600000
  H     -4.627987     1.240174     1.547714
  H     -3.369971    -0.938773     1.225619
  H      5.518016    14.455672     0.267714
  H      3.005000    14.471284     0.106667
  H     15.290000     4.919024    -1.173333
  H     14.019971     2.750495    -1.012286
  H      5.135000    -3.403480     1.600000
  H      7.645000    -3.403480     1.600000
  H     -3.369971     8.317309     1.121047
  H     -4.640000     6.148780     0.960000
  H      7.265000     2.173724    -1.600000
  H      9.775000    -2.173724    -1.600000
  H     14.007583     2.164265     1.092523
  H     13.160000     1.229756    -1.600000
  H     11.905000    -0.943968    -1.600000
  H     11.519483    -2.145250     1.092523
  H     17.398100    -3.670254     0.510705
  H     12.421900    -3.670254     0.510705
  H     11.552417    -5.214272    -0.071113
  H     14.040517    -9.523787    -0.071113
  H      9.780517    -5.233286    -0.652931
  H      7.292417    -9.542801    -0.652931
  H      8.878100    -3.708282    -1.234750
  H      3.901900    -3.708282    -1.234750
  H      5.162417     0.934508    -1.092523
  H      3.901900    -1.248770    -1.525659
  H     17.420000    -1.229756     1.018182
  H     16.137583     0.934508     0.801614
  H     17.398100    -6.129766     0.219796
  H     16.165000    -8.322504     0.436364
  H      9.395000   -10.782016    -0.145455
  H     11.910517   -10.753543    -0.362022
  H      3.880000    -6.148780    -0.727273
  H      5.162417    -8.313045    -0.943841
