192
C-infinitene <2,4,2,2,4,2|4,2,2,4,2,2>(0) EHMO: -183.17319818
  C      1.420000     7.378536     0.266667
  C      0.710000     8.608293     0.266667
  C     -0.710000     8.608293     0.533333
  C     -1.420000     7.378536     0.533333
  C     -0.710000     6.148780     0.533333
  C      0.710000     6.148780     0.533333
  C      9.940000     7.378536    -0.800000
  C      9.230000     8.608293    -0.533333
  C      7.810000     8.608293    -0.533333
  C      7.100000     7.378536    -0.533333
  C      7.810000     6.148780    -0.533333
  C      9.230000     6.148780    -0.800000
  C     12.070000     3.689268    -1.066667
  C     11.360000     4.919024    -1.066667
  C      9.940000     4.919024    -1.066667
  C      9.230000     3.689268    -1.066667
  C      9.940000     2.459512    -1.333333
  C     11.360000     2.459512    -1.333333
  C      9.940000    -0.000000    -1.600000
  C      9.230000     1.229756    -1.600000
  C      7.810000     1.229756    -1.600000
  C      7.100000    -0.000000     1.600000
  C      7.810000    -1.229756     1.600000
  C      9.230000    -1.229756    -1.600000
  C      1.420000    -0.000000     1.600000
  C      0.710000     1.229756     1.600000
  C     -0.710000     1.229756     1.600000
  C     -1.420000    -0.000000     1.600000
  C     -0.710000    -1.229756     1.600000
  C      0.710000    -1.229756     1.600000
  C     -0.710000     3.689268     1.066667
  C     -1.420000     4.919024     0.800000
  C     -2.840000     4.919024     0.800000
  C     -3.550000     3.689268     1.066667
  C     -2.840000     2.459512     1.066667
  C     -1.420000     2.459512     1.066667
  C      5.680000     7.378536    -0.266667
  C      4.970000     8.608293    -0.266667
  C      3.550000     8.608293    -0.000000
  C      2.840000     7.378536    -0.000000
  C      3.550000     6.148780    -0.000000
  C      4.970000     6.148780    -0.000000
  C      5.680000    -0.000000     1.600000
  C      4.970000     1.229756     1.600000
  C      3.550000     1.229756     1.600000
  C      2.840000    -0.000000     1.600000
  C      3.550000    -1.229756     1.600000
  C      4.970000    -1.229756     1.600000
  C     -2.840000     7.378536     0.800000
  C     -3.550000     6.148780     0.800000
  C      7.100000     9.838049    -0.266667
  C      5.680000     9.838049    -0.266667
  C     12.070000     6.148780    -0.800000
  C     11.360000     7.378536    -0.800000
  C     12.070000     1.229756    -1.333333
  C     11.360000    -0.000000    -1.333333
  C      1.420000    -2.459512     1.600000
  C      2.840000    -2.459512     1.600000
  C     -3.550000     1.229756     1.333333
  C     -2.840000     0.000000     1.333333
  C      2.840000     9.838049     0.266667
  C      1.420000     9.838049     0.266667
  C      5.680000    -2.459512     1.600000
  C      7.100000    -2.459512     1.600000
  C      1.420000     0.000000    -1.600000
  C      0.710000     1.229756    -1.600000
  C     -0.710000     1.229756    -1.600000
  C     -1.420000     0.000000    -1.600000
  C     -0.710000    -1.229756    -1.600000
  C      0.710000    -1.229756    -1.600000
  C      5.680000     0.000000    -1.600000
  C      4.970000     1.229756    -1.600000
  C      3.550000     1.229756    -1.600000
  C      2.840000     0.000000    -1.600000
  C      3.550000    -1.229756    -1.600000
  C      4.970000    -1.229756    -1.600000
  C      9.940000    -7.378536     0.861538
  C      9.230000    -6.148780     1.107692
  C      7.810000    -6.148780     1.107692
  C      7.100000    -7.378536     0.861538
  C      7.810000    -8.608293     0.861538
  C      9.230000    -8.608293     0.861538
  C      7.810000   -11.067805     0.615385
  C      7.100000    -9.838049     0.615385
  C      5.680000    -9.838049     0.369231
  C      4.970000   -11.067805     0.369231
  C      5.680000   -12.297561     0.369231
  C      7.100000   -12.297561     0.369231
  C      3.550000   -11.067805     0.123077
  C      2.840000    -9.838049    -0.123077
  C      1.420000    -9.838049    -0.123077
  C      0.710000   -11.067805    -0.123077
  C      1.420000   -12.297561    -0.123077
  C      2.840000   -12.297561     0.123077
  C     -0.710000    -3.689268    -1.107692
  C     -1.420000    -2.459512    -1.107692
  C     -2.840000    -2.459512    -1.107692
  C     -3.550000    -3.689268    -1.107692
  C     -2.840000    -4.919024    -0.861538
  C     -1.420000    -4.919024    -0.861538
  C      7.810000    -3.689268     1.353846
  C      7.100000    -2.459512    -1.600000
  C      5.680000    -2.459512    -1.600000
  C      4.970000    -3.689268     1.353846
  C      5.680000    -4.919024     1.353846
  C      7.100000    -4.919024     1.353846
  C      1.420000    -7.378536    -0.615385
  C      0.710000    -6.148780    -0.615385
  C     -0.710000    -6.148780    -0.615385
  C     -1.420000    -7.378536    -0.615385
  C     -0.710000    -8.608293    -0.369231
  C      0.710000    -8.608293    -0.369231
  C     -2.840000     0.000000    -1.353846
  C     -3.550000    -1.229756    -1.353846
  C      2.840000     2.459512    -1.600000
  C      1.420000     2.459512    -1.600000
  C      9.940000    -4.919024     1.107692
  C      9.230000    -3.689268     1.107692
  C      9.940000    -9.838049     0.615385
  C      9.230000   -11.067805     0.615385
  C      3.550000   -13.527317     0.123077
  C      4.970000   -13.527317     0.123077
  C     -3.550000    -6.148780    -0.861538
  C     -2.840000    -7.378536    -0.861538
  C      7.810000    -1.229756    -1.600000
  C      7.100000    -0.000000    -1.600000
  C     -1.420000    -9.838049    -0.369231
  C     -0.710000   -11.067805    -0.369231
  H     -1.231810     9.544254     0.732805
  H      1.259662     5.228898     0.732805
  H      9.779662     9.528175    -0.333861
  H      7.288190     5.212818    -0.333861
  H     13.141472     3.673188    -0.867195
  H      8.158528     3.673188    -0.867195
  H      7.265000     2.173724    -1.600000
  H      7.645000     0.943968     1.600000
  H      8.900000    -1.229756     1.600000
  H      9.775000    -2.173724    -1.600000
  H      1.255000     2.173724     1.600000
  H     -1.255000    -2.173724     1.600000
  H      0.361472     3.705348     1.266139
  H     -4.621472     3.705348     1.266139
  H      3.005000     5.204813    -0.000000
  H      5.519662     5.228898     0.199472
  H      5.515000     2.173724     1.600000
  H      3.005000     2.173724     1.600000
  H     -3.361810     8.314498     0.999472
  H     -4.640000     6.148780     0.800000
  H      7.649662    10.757931    -0.067195
  H      5.135000    10.782016    -0.266667
  H     13.141472     6.132700    -0.600528
  H     11.905000     8.322504    -0.800000
  H     13.160000     1.229756    -1.333333
  H     11.881810    -0.935962    -1.133861
  H      0.875000    -3.403480     1.600000
  H      3.090587    -3.446479     1.988849
  H     -4.621472     1.245836     1.532805
  H     -3.361810    -0.935962     1.133861
  H      3.389662    10.757931     0.466139
  H      0.875000    10.782016     0.266667
  H     -1.255000     2.173724    -1.600000
  H      1.255000    -2.173724    -1.600000
  H      5.515000     2.173724    -1.600000
  H      3.005000    -2.173724    -1.600000
  H     11.014129    -7.364766     0.676719
  H      6.025871    -7.364766     0.676719
  H      5.154861    -8.900941     0.184411
  H      7.648990   -13.220898     0.184411
  H      3.388990    -8.914711    -0.307897
  H      0.894861   -13.234668    -0.307897
  H      0.364129    -3.703038    -1.292512
  H     -4.624129    -3.703038    -1.292512
  H      7.645000    -3.403480    -1.600000
  H      5.135000    -3.403480    -1.600000
  H      4.088281    -3.908440     0.751654
  H      5.135000    -5.862992     1.353846
  H      2.494129    -7.392307    -0.800204
  H      1.255000    -5.204813    -0.615385
  H     -3.365139     0.937108    -1.169027
  H     -4.624129    -1.243526    -1.538666
  H      3.385000     3.403480    -1.600000
  H      0.875000     3.403480    -1.600000
  H     11.030000    -4.919024     1.107692
  H      9.755139    -2.752161     0.922873
  H     11.014129    -9.824278     0.430565
  H      9.775000   -12.011772     0.615385
  H      3.005000   -14.471284     0.123077
  H      5.518990   -14.450654    -0.061743
  H     -4.640000    -6.148780    -0.861538
  H     -3.365139    -8.315644    -1.046358
  H     -2.510000    -9.838049    -0.369231
  H     -1.235139   -12.004912    -0.554050
