252
C-infinitene <2,4,2,4,2,4|6,2,4,6,2,4>(-6) EHMO: -240.62937644
  C      3.550000    11.067805     0.282353
  C      2.840000    12.297561     0.282353
  C      1.420000    12.297561     0.470588
  C      0.710000    11.067805     0.470588
  C      1.420000     9.838049     0.470588
  C      2.840000     9.838049     0.470588
  C     16.330000    11.067805    -0.847059
  C     15.620000    12.297561    -0.658824
  C     14.200000    12.297561    -0.658824
  C     13.490000    11.067805    -0.658824
  C     14.200000     9.838049    -0.658824
  C     15.620000     9.838049    -0.847059
  C     18.460000     7.378536    -1.035294
  C     17.750000     8.608293    -1.035294
  C     16.330000     8.608293    -1.035294
  C     15.620000     7.378536    -1.035294
  C     16.330000     6.148780    -1.223529
  C     17.750000     6.148780    -1.223529
  C     14.200000     0.000000     1.600000
  C     13.490000     1.229756     1.600000
  C     12.070000     1.229756     1.600000
  C     11.360000     0.000000     1.600000
  C     12.070000    -1.229756     1.600000
  C     13.490000    -1.229756     1.600000
  C      1.420000     0.000000     1.600000
  C      0.710000     1.229756     1.600000
  C     -0.710000     1.229756     1.600000
  C     -1.420000     0.000000     1.600000
  C     -0.710000    -1.229756     1.600000
  C      0.710000    -1.229756     1.600000
  C     -0.710000     3.689268     1.223529
  C     -1.420000     4.919024     1.035294
  C     -2.840000     4.919024     1.035294
  C     -3.550000     3.689268     1.223529
  C     -2.840000     2.459512     1.223529
  C     -1.420000     2.459512     1.223529
  C      7.810000    11.067805    -0.094118
  C      7.100000    12.297561    -0.094118
  C      5.680000    12.297561     0.094118
  C      4.970000    11.067805     0.094118
  C      5.680000     9.838049     0.094118
  C      7.100000     9.838049     0.094118
  C     12.070000    11.067805    -0.470588
  C     11.360000    12.297561    -0.470588
  C      9.940000    12.297561    -0.282353
  C      9.230000    11.067805    -0.282353
  C      9.940000     9.838049    -0.282353
  C     11.360000     9.838049    -0.282353
  C     16.330000     3.689268    -1.411765
  C     15.620000     4.919024    -1.411765
  C     14.200000     4.919024    -1.411765
  C     13.490000     3.689268    -1.411765
  C     14.200000     2.459512     1.600000
  C     15.620000     2.459512     1.600000
  C      9.940000     0.000000     1.600000
  C      9.230000     1.229756     1.600000
  C      7.810000     1.229756     1.600000
  C      7.100000     0.000000     1.600000
  C      7.810000    -1.229756     1.600000
  C      9.230000    -1.229756     1.600000
  C      5.680000     0.000000     1.600000
  C      4.970000     1.229756     1.600000
  C      3.550000     1.229756     1.600000
  C      2.840000     0.000000     1.600000
  C      3.550000    -1.229756     1.600000
  C      4.970000    -1.229756     1.600000
  C      1.420000     7.378536     0.847059
  C      0.710000     8.608293     0.658824
  C     -0.710000     8.608293     0.658824
  C     -1.420000     7.378536     0.847059
  C     -0.710000     6.148780     0.847059
  C      0.710000     6.148780     0.847059
  C     -0.710000    11.067805     0.658824
  C     -1.420000     9.838049     0.658824
  C     13.490000    13.527317    -0.470588
  C     12.070000    13.527317    -0.470588
  C     18.460000     9.838049    -0.847059
  C     17.750000    11.067805    -0.847059
  C     16.330000     1.229756     1.600000
  C     15.620000    -0.000000     1.600000
  C      1.420000    -2.459512     1.600000
  C      2.840000    -2.459512     1.600000
  C     -3.550000     1.229756     1.411765
  C     -2.840000     0.000000     1.411765
  C      4.970000    13.527317     0.282353
  C      3.550000    13.527317     0.282353
  C      9.230000    13.527317    -0.094118
  C      7.810000    13.527317    -0.094118
  C     18.460000     4.919024    -1.223529
  C     17.750000     3.689268    -1.223529
  C      9.940000    -2.459512     1.600000
  C     11.360000    -2.459512     1.600000
  C      5.680000    -2.459512     1.600000
  C      7.100000    -2.459512     1.600000
  C     -2.840000     7.378536     1.035294
  C     -3.550000     6.148780     1.035294
  C     14.200000     0.000000    -1.600000
  C     13.490000     1.229756    -1.600000
  C     12.070000     1.229756    -1.600000
  C     11.360000     0.000000    -1.600000
  C     12.070000    -1.229756    -1.600000
  C     13.490000    -1.229756    -1.600000
  C     22.720000     0.000000     1.035294
  C     22.010000     1.229756     1.035294
  C     20.590000     1.229756     1.223529
  C     19.880000     0.000000     1.223529
  C     20.590000    -1.229756     1.035294
  C     22.010000    -1.229756     1.035294
  C     24.850000    -3.689268     0.658824
  C     24.140000    -2.459512     0.847059
  C     22.720000    -2.459512     0.847059
  C     22.010000    -3.689268     0.658824
  C     22.720000    -4.919024     0.658824
  C     24.140000    -4.919024     0.658824
  C     20.590000   -11.067805     0.094118
  C     19.880000    -9.838049     0.094118
  C     18.460000    -9.838049    -0.094118
  C     17.750000   -11.067805    -0.094118
  C     18.460000   -12.297561    -0.094118
  C     19.880000   -12.297561    -0.094118
  C     16.330000   -11.067805    -0.282353
  C     15.620000    -9.838049    -0.470588
  C     14.200000    -9.838049    -0.470588
  C     13.490000   -11.067805    -0.470588
  C     14.200000   -12.297561    -0.470588
  C     15.620000   -12.297561    -0.282353
  C     12.070000    -3.689268    -1.223529
  C     11.360000    -2.459512    -1.223529
  C      9.940000    -2.459512    -1.223529
  C      9.230000    -3.689268    -1.223529
  C      9.940000    -4.919024    -1.035294
  C     11.360000    -4.919024    -1.035294
  C     18.460000     0.000000     1.411765
  C     17.750000     1.229756     1.411765
  C     16.330000     1.229756    -1.600000
  C     15.620000     0.000000    -1.600000
  C     16.330000    -1.229756     1.411765
  C     17.750000    -1.229756     1.411765
  C     22.720000    -7.378536     0.470588
  C     22.010000    -6.148780     0.470588
  C     20.590000    -6.148780     0.282353
  C     19.880000    -7.378536     0.282353
  C     20.590000    -8.608293     0.282353
  C     22.010000    -8.608293     0.282353
  C     14.200000    -7.378536    -0.847059
  C     13.490000    -6.148780    -0.847059
  C     12.070000    -6.148780    -0.847059
  C     11.360000    -7.378536    -0.847059
  C     12.070000    -8.608293    -0.658824
  C     13.490000    -8.608293    -0.658824
  C      9.940000     0.000000    -1.411765
  C      9.230000    -1.229756    -1.411765
  C     19.880000     2.459512     1.223529
  C     18.460000     2.459512     1.223529
  C     24.850000    -1.229756     0.847059
  C     24.140000    -0.000000     0.847059
  C     22.720000    -9.838049     0.094118
  C     22.010000   -11.067805     0.094118
  C     16.330000   -13.527317    -0.282353
  C     17.750000   -13.527317    -0.282353
  C      9.230000    -6.148780    -1.035294
  C      9.940000    -7.378536    -1.035294
  C     15.620000     2.459512    -1.600000
  C     14.200000     2.459512    -1.600000
  C     24.850000    -6.148780     0.470588
  C     24.140000    -7.378536     0.470588
  C     11.360000    -9.838049    -0.658824
  C     12.070000   -11.067805    -0.658824
  H      0.886760    13.237462     0.613209
  H      3.387358     8.906298     0.613209
  H     16.167358    13.229311    -0.516203
  H     13.666760     8.898147    -0.516203
  H     19.540598     7.370386    -0.892674
  H     14.539402     7.370386    -0.892674
  H     11.525000     2.173724     1.600000
  H     14.035000    -2.173724     1.600000
  H      1.255000     2.173724     1.600000
  H     -1.255000    -2.173724     1.600000
  H      0.370598     3.697419     1.366150
  H     -4.630598     3.697419     1.366150
  H      5.135000     8.894081     0.094118
  H      7.647358     8.906298     0.236738
  H      9.395000     8.894081    -0.282353
  H     11.907358     8.906298    -0.139733
  H     13.655000     5.862992    -1.411765
  H     12.409402     3.681117    -1.269144
  H     13.655000     3.403480     1.600000
  H     16.165000     3.403480     1.600000
  H      9.775000     2.173724     1.600000
  H      7.265000     2.173724     1.600000
  H      5.515000     2.173724     1.600000
  H      3.005000     2.173724     1.600000
  H      2.500598     7.386687     0.989679
  H      1.255000     5.204813     0.847059
  H     -1.243240    12.007706     0.801444
  H     -2.510000     9.838049     0.658824
  H     14.037358    14.459067    -0.327968
  H     11.525000    14.471284    -0.470588
  H     19.540598     9.829898    -0.704438
  H     18.295000    12.011772    -0.847059
  H      0.875000    -3.403480     1.600000
  H      3.385000    -3.403480     1.600000
  H     -4.630598     1.237907     1.554385
  H     -3.373240    -0.939901     1.269144
  H      5.517358    14.459067     0.424973
  H      3.005000    14.471284     0.282353
  H      9.777358    14.459067     0.048503
  H      7.265000    14.471284    -0.094118
  H     19.550000     4.919024    -1.223529
  H     18.283240     2.749367    -1.080909
  H      9.395000    -3.403480     1.600000
  H     11.905000    -3.403480     1.600000
  H      5.135000    -3.403480     1.600000
  H      7.645000    -3.403480     1.600000
  H     -3.373240     8.318438     1.177915
  H     -4.640000     6.148780     1.035294
  H     11.525000     2.173724    -1.600000
  H     14.035000    -2.173724    -1.600000
  H     22.543240     2.169657     0.892674
  H     20.042642    -2.161506     0.892674
  H     25.930598    -3.681117     0.516203
  H     20.929402    -3.681117     0.516203
  H     17.926760    -8.898147    -0.236738
  H     20.427358   -13.229311    -0.236738
  H     16.167358    -8.906298    -0.613209
  H     13.666760   -13.237462    -0.613209
  H     13.150598    -3.697419    -1.366150
  H      8.149402    -3.697419    -1.366150
  H     17.420000     1.229756    -1.600000
  H     16.165000    -0.943968    -1.600000
  H     15.782642    -2.161506     1.269144
  H     18.295000    -2.173724     1.411765
  H     20.056760    -5.208879     0.139733
  H     18.790000    -7.378536     0.282353
  H     15.280598    -7.386687    -0.989679
  H     14.035000    -5.204813    -0.847059
  H      9.406760     0.939901    -1.269144
  H      8.149402    -1.237907    -1.554385
  H     20.425000     3.403480     1.223529
  H     17.912642     3.391262     1.080909
  H     25.940000    -1.229756     0.847059
  H     24.673240     0.939901     0.704438
  H     23.800598    -9.829898    -0.048503
  H     22.555000   -12.011772     0.094118
  H     15.785000   -14.471284    -0.282353
  H     18.297358   -14.459067    -0.424973
  H      8.140000    -6.148780    -1.035294
  H      9.406760    -8.318438    -1.177915
  H     25.930598    -6.140630     0.327968
  H     24.685000    -8.322504     0.470588
  H     10.270000    -9.838049    -0.658824
  H     11.536760   -12.007706    -0.801444
