192
C-infinitene <2,4,2,2,4,2|2,4,2,2,4,2>(0) EHMO: -183.28531490
  C      3.550000    11.067805     0.000000
  C      2.840000    12.297561     0.000000
  C      1.420000    12.297561    -0.228571
  C      0.710000    11.067805    -0.228571
  C      1.420000     9.838049    -0.228571
  C      2.840000     9.838049    -0.228571
  C      7.810000    11.067805     0.457143
  C      7.100000    12.297561     0.228571
  C      5.680000    12.297561     0.228571
  C      4.970000    11.067805     0.228571
  C      5.680000     9.838049     0.228571
  C      7.100000     9.838049     0.457143
  C      9.940000     7.378536     0.685714
  C      9.230000     8.608293     0.685714
  C      7.810000     8.608293     0.685714
  C      7.100000     7.378536     0.685714
  C      7.810000     6.148780     0.914286
  C      9.230000     6.148780     0.914286
  C      5.680000     0.000000    -1.600000
  C      4.970000     1.229756    -1.600000
  C      3.550000     1.229756    -1.600000
  C      2.840000     0.000000    -1.600000
  C      3.550000    -1.229756    -1.600000
  C      4.970000    -1.229756    -1.600000
  C      1.420000     0.000000    -1.600000
  C      0.710000     1.229756    -1.600000
  C     -0.710000     1.229756    -1.600000
  C     -1.420000     0.000000    -1.600000
  C     -0.710000    -1.229756    -1.600000
  C      0.710000    -1.229756    -1.600000
  C     -0.710000     3.689268    -1.142857
  C     -1.420000     4.919024    -0.914286
  C     -2.840000     4.919024    -0.914286
  C     -3.550000     3.689268    -1.142857
  C     -2.840000     2.459512    -1.142857
  C     -1.420000     2.459512    -1.142857
  C      7.810000     3.689268     1.142857
  C      7.100000     4.919024     1.142857
  C      5.680000     4.919024     1.142857
  C      4.970000     3.689268     1.142857
  C      5.680000     2.459512     1.371429
  C      7.100000     2.459512     1.371429
  C      1.420000     7.378536    -0.685714
  C      0.710000     8.608293    -0.457143
  C     -0.710000     8.608293    -0.457143
  C     -1.420000     7.378536    -0.685714
  C     -0.710000     6.148780    -0.685714
  C      0.710000     6.148780    -0.685714
  C     -0.710000    11.067805    -0.457143
  C     -1.420000     9.838049    -0.457143
  C      4.970000    13.527317     0.000000
  C      3.550000    13.527317     0.000000
  C      9.940000     9.838049     0.457143
  C      9.230000    11.067805     0.457143
  C      7.810000     1.229756     1.371429
  C      7.100000    -0.000000     1.371429
  C      1.420000    -2.459512    -1.600000
  C      2.840000    -2.459512    -1.600000
  C     -3.550000     1.229756    -1.371429
  C     -2.840000     0.000000    -1.371429
  C      9.940000     4.919024     0.914286
  C      9.230000     3.689268     0.914286
  C     -2.840000     7.378536    -0.914286
  C     -3.550000     6.148780    -0.914286
  C      1.420000     0.000000     1.600000
  C      0.710000     1.229756     1.600000
  C     -0.710000     1.229756     1.600000
  C     -1.420000     0.000000     1.600000
  C     -0.710000    -1.229756     1.600000
  C      0.710000    -1.229756     1.600000
  C      5.680000     0.000000     1.600000
  C      4.970000     1.229756     1.600000
  C      3.550000     1.229756     1.600000
  C      2.840000     0.000000     1.600000
  C      3.550000    -1.229756     1.600000
  C      4.970000    -1.229756     1.600000
  C      9.940000    -7.378536    -0.685714
  C      9.230000    -6.148780    -0.914286
  C      7.810000    -6.148780    -0.914286
  C      7.100000    -7.378536    -0.685714
  C      7.810000    -8.608293    -0.685714
  C      9.230000    -8.608293    -0.685714
  C      7.810000   -11.067805    -0.457143
  C      7.100000    -9.838049    -0.457143
  C      5.680000    -9.838049    -0.228571
  C      4.970000   -11.067805    -0.228571
  C      5.680000   -12.297561    -0.228571
  C      7.100000   -12.297561    -0.228571
  C      3.550000   -11.067805     0.000000
  C      2.840000    -9.838049     0.228571
  C      1.420000    -9.838049     0.228571
  C      0.710000   -11.067805     0.228571
  C      1.420000   -12.297561     0.228571
  C      2.840000   -12.297561     0.000000
  C     -0.710000    -3.689268     1.142857
  C     -1.420000    -2.459512     1.142857
  C     -2.840000    -2.459512     1.142857
  C     -3.550000    -3.689268     1.142857
  C     -2.840000    -4.919024     0.914286
  C     -1.420000    -4.919024     0.914286
  C      7.810000    -3.689268    -1.142857
  C      7.100000    -2.459512    -1.371429
  C      5.680000    -2.459512    -1.371429
  C      4.970000    -3.689268    -1.142857
  C      5.680000    -4.919024    -1.142857
  C      7.100000    -4.919024    -1.142857
  C      1.420000    -7.378536     0.685714
  C      0.710000    -6.148780     0.685714
  C     -0.710000    -6.148780     0.685714
  C     -1.420000    -7.378536     0.685714
  C     -0.710000    -8.608293     0.457143
  C      0.710000    -8.608293     0.457143
  C     -2.840000     0.000000     1.371429
  C     -3.550000    -1.229756     1.371429
  C      2.840000     2.459512     1.600000
  C      1.420000     2.459512     1.600000
  C      9.940000    -4.919024    -0.914286
  C      9.230000    -3.689268    -0.914286
  C      9.940000    -9.838049    -0.457143
  C      9.230000   -11.067805    -0.457143
  C      3.550000   -13.527317     0.000000
  C      4.970000   -13.527317     0.000000
  C     -3.550000    -6.148780     0.914286
  C     -2.840000    -7.378536     0.914286
  C      7.810000    -1.229756    -1.371429
  C      7.100000    -0.000000    -1.371429
  C     -1.420000    -9.838049     0.457143
  C     -0.710000   -11.067805     0.457143
  H      0.892196    13.235587    -0.400704
  H      3.388452     8.911944    -0.400704
  H      7.648452    13.223666     0.056439
  H      5.152196     8.900023     0.056439
  H     11.016257     7.366615     0.513582
  H      6.023743     7.366615     0.513582
  H      5.515000     2.173724    -1.600000
  H      3.005000     2.173724    -1.600000
  H      1.255000     2.173724    -1.600000
  H     -1.255000    -2.173724    -1.600000
  H      0.366257     3.701189    -1.314990
  H     -4.626257     3.701189    -1.314990
  H      5.135000     5.862992     1.142857
  H      4.046125     3.834581     0.583000
  H      2.496257     7.390457    -0.857847
  H      1.255000     5.204813    -0.685714
  H     -1.237804    12.005831    -0.629275
  H     -2.510000     9.838049    -0.457143
  H      5.518452    14.453422    -0.172133
  H      3.005000    14.471284     0.000000
  H     11.016257     9.826128     0.285010
  H      9.775000    12.011772     0.457143
  H      8.900000     1.229756     1.371429
  H      7.627804    -0.938026     1.199296
  H      0.875000    -3.403480    -1.600000
  H      3.184561    -3.421783    -1.978698
  H     -4.626257     1.241677    -1.543561
  H     -3.367804    -0.938026    -1.199296
  H     11.030000     4.919024     0.914286
  H      9.757804     2.751242     0.742153
  H     -3.367804     8.316562    -1.086418
  H     -4.640000     6.148780    -0.914286
  H     -1.255000     2.173724     1.600000
  H      1.255000    -2.173724     1.600000
  H      3.005000    -2.173724     1.600000
  H      5.515000    -2.173724     1.600000
  H     11.016257    -7.366615    -0.513582
  H      6.023743    -7.366615    -0.513582
  H      5.152196    -8.900023    -0.056439
  H      7.648452   -13.223666    -0.056439
  H      3.388452    -8.911944     0.400704
  H      0.892196   -13.235587     0.400704
  H      0.366257    -3.701189     1.314990
  H     -4.626257    -3.701189     1.314990
  H      4.046125    -3.834581    -0.583000
  H      5.135000    -5.862992    -1.142857
  H      2.496257    -7.390457     0.857847
  H      1.255000    -5.204813     0.685714
  H     -3.367804     0.938026     1.199296
  H     -4.626257    -1.241677     1.543561
  H      3.184561     3.421783     1.978698
  H      0.875000     3.403480     1.600000
  H     11.030000    -4.919024    -0.914286
  H      9.757804    -2.751242    -0.742153
  H     11.016257    -9.826128    -0.285010
  H      9.775000   -12.011772    -0.457143
  H      3.005000   -14.471284     0.000000
  H      5.518452   -14.453422     0.172133
  H     -4.640000    -6.148780     0.914286
  H     -3.367804    -8.316562     1.086418
  H      8.900000    -1.229756    -1.371429
  H      7.627804     0.938026    -1.199296
  H     -2.510000    -9.838049     0.457143
  H     -1.237804   -12.005831     0.629275
