252
C-infinitene <4,2,4,2,4,2|4,2,6,4,2,6>(0) EHMO: -240.63367802
  C      5.680000    14.757073     0.160000
  C      4.970000    15.986829     0.160000
  C      3.550000    15.986829     0.320000
  C      2.840000    14.757073     0.320000
  C      3.550000    13.527317     0.320000
  C      4.970000    13.527317     0.320000
  C     14.200000    14.757073    -0.480000
  C     13.490000    15.986829    -0.320000
  C     12.070000    15.986829    -0.320000
  C     11.360000    14.757073    -0.320000
  C     12.070000    13.527317    -0.320000
  C     13.490000    13.527317    -0.480000
  C     16.330000    11.067805    -0.640000
  C     15.620000    12.297561    -0.640000
  C     14.200000    12.297561    -0.640000
  C     13.490000    11.067805    -0.640000
  C     14.200000     9.838049    -0.800000
  C     15.620000     9.838049    -0.800000
  C      9.940000     0.000000    -1.600000
  C      9.230000     1.229756    -1.600000
  C      7.810000     1.229756    -1.600000
  C      7.100000     0.000000     1.600000
  C      7.810000    -1.229756     1.600000
  C      9.230000    -1.229756    -1.600000
  C      1.420000     0.000000     1.600000
  C      0.710000     1.229756     1.600000
  C     -0.710000     1.229756     1.600000
  C     -1.420000     0.000000     1.600000
  C     -0.710000    -1.229756     1.600000
  C      0.710000    -1.229756     1.600000
  C     -0.710000     3.689268     1.280000
  C     -1.420000     4.919024     1.120000
  C     -2.840000     4.919024     1.120000
  C     -3.550000     3.689268     1.280000
  C     -2.840000     2.459512     1.280000
  C     -1.420000     2.459512     1.280000
  C      9.940000    14.757073    -0.160000
  C      9.230000    15.986829    -0.160000
  C      7.810000    15.986829    -0.000000
  C      7.100000    14.757073    -0.000000
  C      7.810000    13.527317    -0.000000
  C      9.230000    13.527317    -0.000000
  C     14.200000     7.378536    -0.960000
  C     13.490000     8.608293    -0.960000
  C     12.070000     8.608293    -0.960000
  C     11.360000     7.378536    -0.960000
  C     12.070000     6.148780    -1.120000
  C     13.490000     6.148780    -1.120000
  C     12.070000     3.689268    -1.280000
  C     11.360000     4.919024    -1.280000
  C      9.940000     4.919024    -1.280000
  C      9.230000     3.689268    -1.280000
  C      9.940000     2.459512    -1.440000
  C     11.360000     2.459512    -1.440000
  C      5.680000     0.000000     1.600000
  C      4.970000     1.229756     1.600000
  C      3.550000     1.229756     1.600000
  C      2.840000     0.000000     1.600000
  C      3.550000    -1.229756     1.600000
  C      4.970000    -1.229756     1.600000
  C      1.420000     7.378536     0.960000
  C      0.710000     8.608293     0.800000
  C     -0.710000     8.608293     0.800000
  C     -1.420000     7.378536     0.960000
  C     -0.710000     6.148780     0.960000
  C      0.710000     6.148780     0.960000
  C      3.550000    11.067805     0.640000
  C      2.840000    12.297561     0.480000
  C      1.420000    12.297561     0.480000
  C      0.710000    11.067805     0.640000
  C      1.420000     9.838049     0.640000
  C      2.840000     9.838049     0.640000
  C      1.420000    14.757073     0.480000
  C      0.710000    13.527317     0.480000
  C     11.360000    17.216585    -0.160000
  C      9.940000    17.216585    -0.160000
  C     16.330000    13.527317    -0.480000
  C     15.620000    14.757073    -0.480000
  C     12.070000     1.229756    -1.440000
  C     11.360000    -0.000000    -1.440000
  C      1.420000    -2.459512     1.600000
  C      2.840000    -2.459512     1.600000
  C     -3.550000     1.229756     1.440000
  C     -2.840000     0.000000     1.440000
  C      7.100000    17.216585     0.160000
  C      5.680000    17.216585     0.160000
  C     16.330000     8.608293    -0.800000
  C     15.620000     7.378536    -0.800000
  C     14.200000     4.919024    -1.120000
  C     13.490000     3.689268    -1.120000
  C      5.680000    -2.459512     1.600000
  C      7.100000    -2.459512     1.600000
  C     -2.840000     7.378536     1.120000
  C     -3.550000     6.148780     1.120000
  C     -0.710000    11.067805     0.800000
  C     -1.420000     9.838049     0.800000
  C      1.420000     0.000000    -1.600000
  C      0.710000     1.229756    -1.600000
  C     -0.710000     1.229756    -1.600000
  C     -1.420000     0.000000    -1.600000
  C     -0.710000    -1.229756    -1.600000
  C      0.710000    -1.229756    -1.600000
  C      5.680000     0.000000    -1.600000
  C      4.970000     1.229756    -1.600000
  C      3.550000     1.229756    -1.600000
  C      2.840000     0.000000    -1.600000
  C      3.550000    -1.229756    -1.600000
  C      4.970000    -1.229756    -1.600000
  C      9.940000    -7.378536     0.960000
  C      9.230000    -6.148780     1.173333
  C      7.810000    -6.148780     1.173333
  C      7.100000    -7.378536     0.960000
  C      7.810000    -8.608293     0.960000
  C      9.230000    -8.608293     0.960000
  C      7.810000   -11.067805     0.746667
  C      7.100000    -9.838049     0.746667
  C      5.680000    -9.838049     0.533333
  C      4.970000   -11.067805     0.533333
  C      5.680000   -12.297561     0.533333
  C      7.100000   -12.297561     0.533333
  C     -0.710000   -11.067805    -0.106667
  C     -1.420000    -9.838049    -0.320000
  C     -2.840000    -9.838049    -0.320000
  C     -3.550000   -11.067805    -0.320000
  C     -2.840000   -12.297561    -0.320000
  C     -1.420000   -12.297561    -0.106667
  C     -2.840000    -7.378536    -0.746667
  C     -3.550000    -6.148780    -0.746667
  C     -4.970000    -6.148780    -0.746667
  C     -5.680000    -7.378536    -0.746667
  C     -4.970000    -8.608293    -0.533333
  C     -3.550000    -8.608293    -0.533333
  C      7.810000    -3.689268     1.386667
  C      7.100000    -2.459512    -1.600000
  C      5.680000    -2.459512    -1.600000
  C      4.970000    -3.689268     1.386667
  C      5.680000    -4.919024     1.386667
  C      7.100000    -4.919024     1.386667
  C      3.550000   -11.067805     0.320000
  C      2.840000    -9.838049     0.106667
  C      1.420000    -9.838049     0.106667
  C      0.710000   -11.067805     0.106667
  C      1.420000   -12.297561     0.106667
  C      2.840000   -12.297561     0.320000
  C     -0.710000    -3.689268    -1.173333
  C     -1.420000    -2.459512    -1.173333
  C     -2.840000    -2.459512    -1.173333
  C     -3.550000    -3.689268    -0.960000
  C     -2.840000    -4.919024    -0.960000
  C     -1.420000    -4.919024    -1.173333
  C     -2.840000     0.000000    -1.386667
  C     -3.550000    -1.229756    -1.386667
  C      2.840000     2.459512    -1.600000
  C      1.420000     2.459512    -1.600000
  C      9.940000    -4.919024     1.173333
  C      9.230000    -3.689268     1.173333
  C      9.940000    -9.838049     0.746667
  C      9.230000   -11.067805     0.746667
  C     -0.710000   -13.527317    -0.106667
  C      0.710000   -13.527317    -0.106667
  C     -5.680000    -9.838049    -0.533333
  C     -4.970000   -11.067805    -0.533333
  C      7.810000    -1.229756    -1.600000
  C      7.100000    -0.000000    -1.600000
  C      3.550000   -13.527317     0.320000
  C      4.970000   -13.527317     0.320000
  C     -4.970000    -3.689268    -0.960000
  C     -5.680000    -4.919024    -0.960000
  H      3.013538    16.927843     0.441663
  H      5.516711    12.592220     0.441663
  H     14.036711    16.921925    -0.198337
  H     11.533538    12.586303    -0.198337
  H     17.413173    11.061887    -0.518337
  H     12.406827    11.061887    -0.518337
  H      7.265000     2.173724    -1.600000
  H      7.645000     0.943968     1.600000
  H      8.900000    -1.229756     1.600000
  H      9.775000    -2.173724    -1.600000
  H      1.255000     2.173724     1.600000
  H     -1.255000    -2.173724     1.600000
  H      0.373173     3.695185     1.401663
  H     -4.633173     3.695185     1.401663
  H      7.265000    12.583349    -0.000000
  H      9.776711    12.592220     0.121663
  H     11.525000     9.552260    -0.960000
  H     10.276827     7.372619    -0.838337
  H      9.395000     5.862992    -1.280000
  H      8.146827     3.683351    -1.158337
  H      5.515000     2.173724     1.600000
  H      3.005000     2.173724     1.600000
  H      2.503173     7.384454     1.081663
  H      1.255000     5.204813     0.960000
  H      4.633173    11.073722     0.761663
  H      3.385000     8.894081     0.640000
  H      0.883538    15.698087     0.601663
  H     -0.380000    13.527317     0.480000
  H     11.906711    18.151682    -0.038337
  H      9.395000    18.160553    -0.160000
  H     17.413173    13.521400    -0.358337
  H     16.165000    15.701041    -0.480000
  H     13.160000     1.229756    -1.440000
  H     11.896462    -0.941014    -1.318337
  H      0.875000    -3.403480     1.600000
  H      3.079908    -3.459014     1.962684
  H     -4.633173     1.235673     1.561663
  H     -3.376462    -0.941014     1.318337
  H      7.646711    18.151682     0.281663
  H      5.135000    18.160553     0.160000
  H     17.420000     8.608293    -0.800000
  H     16.156462     6.437523    -0.678337
  H     15.290000     4.919024    -1.120000
  H     14.026462     2.748255    -0.998337
  H     -3.376462     8.319550     1.241663
  H     -4.640000     6.148780     1.120000
  H     -1.246462    12.008818     0.921663
  H     -2.510000     9.838049     0.800000
  H     -1.255000     2.173724    -1.600000
  H      1.255000    -2.173724    -1.600000
  H      5.515000     2.173724    -1.600000
  H      3.005000    -2.173724    -1.600000
  H     11.017987    -7.368118     0.798953
  H      6.022013    -7.368118     0.798953
  H      5.150029    -8.899276     0.372286
  H      7.648016   -13.225915     0.372286
  H     -0.871984    -8.909694    -0.481047
  H     -3.369971   -13.236334    -0.481047
  H     -1.762013    -7.388955    -0.907714
  H     -6.757987    -7.388955    -0.907714
  H      7.645000    -3.403480    -1.600000
  H      5.135000    -3.403480    -1.600000
  H      4.065835    -3.934230     0.829371
  H      5.135000    -5.862992     1.386667
  H      3.388016    -8.909694    -0.054381
  H      0.875000    -8.894081     0.106667
  H      0.380000    -3.689268    -1.173333
  H     -0.890029    -5.857797    -1.334381
  H     -3.369971     0.938773    -1.225619
  H     -4.627987    -1.240174    -1.547714
  H      3.385000     3.403480    -1.600000
  H      0.875000     3.403480    -1.600000
  H     11.030000    -4.919024     1.173333
  H      9.759971    -2.750495     1.012286
  H     11.017987    -9.827630     0.585619
  H      9.775000   -12.011772     0.746667
  H     -1.255000   -14.471284    -0.106667
  H      1.258016   -14.455672    -0.267714
  H     -6.770000    -9.838049    -0.533333
  H     -5.499971   -12.006578    -0.694381
  H      3.005000   -14.471284     0.320000
  H      5.518016   -14.455672     0.158953
  H     -5.515000    -2.745301    -0.960000
  H     -6.757987    -4.929443    -1.121047
