252
C-infinitene <2,4,2,4,2,4|4,6,2,4,6,2>(2) EHMO: -240.62401338
  C      3.550000    11.067805     0.123077
  C      2.840000    12.297561     0.123077
  C      1.420000    12.297561    -0.123077
  C      0.710000    11.067805    -0.123077
  C      1.420000     9.838049    -0.123077
  C      2.840000     9.838049    -0.123077
  C      7.810000    11.067805     0.615385
  C      7.100000    12.297561     0.369231
  C      5.680000    12.297561     0.369231
  C      4.970000    11.067805     0.369231
  C      5.680000     9.838049     0.369231
  C      7.100000     9.838049     0.615385
  C     12.070000     3.689268     1.353846
  C     11.360000     4.919024     1.353846
  C      9.940000     4.919024     1.353846
  C      9.230000     3.689268     1.353846
  C      9.940000     2.459512    -1.600000
  C     11.360000     2.459512    -1.600000
  C      9.940000     0.000000    -1.600000
  C      9.230000     1.229756    -1.600000
  C      7.810000     1.229756    -1.600000
  C      7.100000     0.000000    -1.600000
  C      7.810000    -1.229756    -1.600000
  C      9.230000    -1.229756    -1.600000
  C      1.420000     0.000000    -1.600000
  C      0.710000     1.229756    -1.600000
  C     -0.710000     1.229756    -1.600000
  C     -1.420000     0.000000    -1.600000
  C     -0.710000    -1.229756    -1.600000
  C      0.710000    -1.229756    -1.600000
  C     -0.710000     3.689268    -1.107692
  C     -1.420000     4.919024    -0.861538
  C     -2.840000     4.919024    -0.861538
  C     -3.550000     3.689268    -1.107692
  C     -2.840000     2.459512    -1.107692
  C     -1.420000     2.459512    -1.107692
  C      9.940000     7.378536     1.107692
  C      9.230000     8.608293     0.861538
  C      7.810000     8.608293     0.861538
  C      7.100000     7.378536     0.861538
  C      7.810000     6.148780     0.861538
  C      9.230000     6.148780     1.107692
  C      5.680000     0.000000    -1.600000
  C      4.970000     1.229756    -1.600000
  C      3.550000     1.229756    -1.600000
  C      2.840000     0.000000    -1.600000
  C      3.550000    -1.229756    -1.600000
  C      4.970000    -1.229756    -1.600000
  C      1.420000     7.378536    -0.615385
  C      0.710000     8.608293    -0.369231
  C     -0.710000     8.608293    -0.369231
  C     -1.420000     7.378536    -0.615385
  C     -0.710000     6.148780    -0.615385
  C      0.710000     6.148780    -0.615385
  C     -0.710000    11.067805    -0.369231
  C     -1.420000     9.838049    -0.369231
  C      4.970000    13.527317     0.123077
  C      3.550000    13.527317     0.123077
  C     12.070000     6.148780     1.107692
  C     11.360000     7.378536     1.107692
  C     12.070000     1.229756    -1.600000
  C     11.360000    -0.000000    -1.600000
  C      1.420000    -2.459512    -1.600000
  C      2.840000    -2.459512    -1.600000
  C     -3.550000     1.229756    -1.353846
  C     -2.840000     0.000000    -1.353846
  C      9.940000     9.838049     0.615385
  C      9.230000    11.067805     0.615385
  C      5.680000    -2.459512    -1.600000
  C      7.100000    -2.459512    -1.600000
  C     -2.840000     7.378536    -0.861538
  C     -3.550000     6.148780    -0.861538
  C      5.680000     0.000000     1.600000
  C      4.970000     1.229756     1.600000
  C      3.550000     1.229756     1.600000
  C      2.840000     0.000000     1.600000
  C      3.550000    -1.229756     1.600000
  C      4.970000    -1.229756     1.600000
  C     14.200000     0.000000    -1.447619
  C     13.490000     1.229756    -1.447619
  C     12.070000     1.229756     1.600000
  C     11.360000     0.000000     1.600000
  C     12.070000    -1.229756    -1.447619
  C     13.490000    -1.229756    -1.447619
  C     20.590000   -11.067805    -0.533333
  C     19.880000    -9.838049    -0.685714
  C     18.460000    -9.838049    -0.685714
  C     17.750000   -11.067805    -0.533333
  C     18.460000   -12.297561    -0.533333
  C     19.880000   -12.297561    -0.533333
  C     18.460000   -14.757073    -0.380952
  C     17.750000   -13.527317    -0.380952
  C     16.330000   -13.527317    -0.228571
  C     15.620000   -14.757073    -0.228571
  C     16.330000   -15.986829    -0.228571
  C     17.750000   -15.986829    -0.228571
  C      9.940000   -14.757073     0.228571
  C      9.230000   -13.527317     0.380952
  C      7.810000   -13.527317     0.380952
  C      7.100000   -14.757073     0.380952
  C      7.810000   -15.986829     0.380952
  C      9.230000   -15.986829     0.228571
  C      3.550000    -3.689268     1.295238
  C      2.840000    -2.459512     1.295238
  C      1.420000    -2.459512     1.295238
  C      0.710000    -3.689268     1.295238
  C      1.420000    -4.919024     1.142857
  C      2.840000    -4.919024     1.142857
  C      9.940000     0.000000     1.600000
  C      9.230000     1.229756     1.600000
  C      7.810000     1.229756     1.600000
  C      7.100000     0.000000     1.600000
  C      7.810000    -1.229756     1.600000
  C      9.230000    -1.229756     1.600000
  C     16.330000    -3.689268    -1.142857
  C     15.620000    -2.459512    -1.295238
  C     14.200000    -2.459512    -1.295238
  C     13.490000    -3.689268    -1.142857
  C     14.200000    -4.919024    -1.142857
  C     15.620000    -4.919024    -1.142857
  C     18.460000    -7.378536    -0.838095
  C     17.750000    -6.148780    -0.990476
  C     16.330000    -6.148780    -0.990476
  C     15.620000    -7.378536    -0.838095
  C     16.330000    -8.608293    -0.838095
  C     17.750000    -8.608293    -0.838095
  C     14.200000   -14.757073    -0.076190
  C     13.490000   -13.527317     0.076190
  C     12.070000   -13.527317     0.076190
  C     11.360000   -14.757073     0.076190
  C     12.070000   -15.986829     0.076190
  C     13.490000   -15.986829    -0.076190
  C      7.810000   -11.067805     0.685714
  C      7.100000    -9.838049     0.685714
  C      5.680000    -9.838049     0.685714
  C      4.970000   -11.067805     0.685714
  C      5.680000   -12.297561     0.533333
  C      7.100000   -12.297561     0.533333
  C      5.680000    -7.378536     0.990476
  C      4.970000    -6.148780     0.990476
  C      3.550000    -6.148780     0.990476
  C      2.840000    -7.378536     0.990476
  C      3.550000    -8.608293     0.838095
  C      4.970000    -8.608293     0.838095
  C      1.420000     0.000000     1.447619
  C      0.710000    -1.229756     1.447619
  C     11.360000     2.459512     1.600000
  C      9.940000     2.459512     1.600000
  C     20.590000    -8.608293    -0.685714
  C     19.880000    -7.378536    -0.685714
  C     20.590000   -13.527317    -0.380952
  C     19.880000   -14.757073    -0.380952
  C      9.940000   -17.216585     0.228571
  C     11.360000   -17.216585     0.228571
  C      0.710000    -6.148780     1.142857
  C      1.420000    -7.378536     1.142857
  C      7.100000     2.459512     1.600000
  C      5.680000     2.459512     1.600000
  C     16.330000    -1.229756    -1.295238
  C     15.620000    -0.000000    -1.295238
  C     18.460000    -4.919024    -0.990476
  C     17.750000    -3.689268    -0.990476
  C     14.200000   -17.216585    -0.076190
  C     15.620000   -17.216585    -0.076190
  C      4.970000   -13.527317     0.533333
  C      5.680000   -14.757073     0.533333
  C      2.840000    -9.838049     0.838095
  C      3.550000   -11.067805     0.838095
  H      0.894861    13.234668    -0.307897
  H      3.388990     8.914711    -0.307897
  H      7.648990    13.220898     0.184411
  H      5.154861     8.900941     0.184411
  H     13.144129     3.675498     1.169027
  H      8.348281     3.908440     0.751654
  H      9.395000     3.403480    -1.600000
  H     11.905000     3.403480    -1.600000
  H      7.265000     2.173724    -1.600000
  H      9.775000    -2.173724    -1.600000
  H      1.255000     2.173724    -1.600000
  H     -1.255000    -2.173724    -1.600000
  H      0.364129     3.703038    -1.292512
  H     -4.624129     3.703038    -1.292512
  H      6.010000     7.378536     0.861538
  H      7.284861     5.211673     0.676719
  H      5.515000     2.173724    -1.600000
  H      3.005000     2.173724    -1.600000
  H      2.494129     7.392307    -0.800204
  H      1.255000     5.204813    -0.615385
  H     -1.235139    12.004912    -0.554050
  H     -2.510000     9.838049    -0.369231
  H      5.518990    14.450654    -0.061743
  H      3.005000    14.471284     0.123077
  H     13.144129     6.135010     0.922873
  H     11.905000     8.322504     1.107692
  H      0.875000    -3.403480    -1.600000
  H      3.385000    -3.403480    -1.600000
  H     -4.624129     1.243526    -1.538666
  H     -3.365139    -0.937108    -1.169027
  H     11.014129     9.824278     0.430565
  H      9.775000    12.011772     0.615385
  H      5.135000    -3.403480    -1.600000
  H      7.645000    -3.403480    -1.600000
  H     -3.365139     8.315644    -1.046358
  H     -4.640000     6.148780    -0.861538
  H      3.005000     2.173724     1.600000
  H      5.515000    -2.173724     1.600000
  H     14.027246     2.171041    -1.331649
  H     13.160000     1.229756     1.600000
  H     11.905000    -0.943968     1.600000
  H     11.523447    -2.165668    -1.331649
  H     21.673800   -11.062431    -0.417363
  H     16.666200   -11.062431    -0.417363
  H     15.792754   -12.586032    -0.112601
  H     18.296553   -16.922740    -0.112601
  H      9.776553   -12.591405     0.496923
  H      7.272754   -16.928114     0.496923
  H      4.633800    -3.694642     1.411208
  H     -0.373800    -3.694642     1.411208
  H      7.265000    -2.173724     1.600000
  H      9.775000    -2.173724     1.600000
  H     12.406200    -3.683895    -1.026887
  H     13.655000    -5.862992    -1.142857
  H     14.536200    -7.373163    -0.722125
  H     15.785000    -9.552260    -0.838095
  H     14.036553   -12.591405     0.192161
  H     11.525000   -12.583349     0.076190
  H      8.893800   -11.073178     0.801685
  H      7.645000    -8.894081     0.685714
  H      6.763800    -7.383910     1.106446
  H      5.515000    -5.204813     0.990476
  H      0.882754     0.941285     1.331649
  H     -0.373800    -1.235129     1.563589
  H     21.680000    -8.608293    -0.685714
  H     20.417246    -6.437252    -0.569744
  H     21.673800   -13.521943    -0.264982
  H     20.425000   -15.701041    -0.380952
  H      9.395000   -18.160553     0.228571
  H     11.906553   -18.152497     0.344542
  H     -0.380000    -6.148780     1.142857
  H      0.882754    -8.319821     1.258827
  H      7.350587     3.446479     1.988849
  H      5.135000     3.403480     1.600000
  H     17.420000    -1.229756    -1.295238
  H     16.157246     0.941285    -1.179268
  H     19.550000    -4.919024    -0.990476
  H     18.287246    -2.747983    -0.874506
  H     13.655000   -18.160553    -0.076190
  H     16.166553   -18.152497     0.039780
  H      3.880000   -13.527317     0.533333
  H      5.142754   -15.698358     0.649304
  H      1.750000    -9.838049     0.838095
  H      3.012754   -12.009090     0.954065
