252
C-infinitene <2,4,2,4,2,4|6,4,2,6,4,2>(0) EHMO: -240.62186734
  C     -0.710000    11.067805     0.355556
  C     -1.420000    12.297561     0.355556
  C     -2.840000    12.297561     0.533333
  C     -3.550000    11.067805     0.533333
  C     -2.840000     9.838049     0.533333
  C     -1.420000     9.838049     0.533333
  C     12.070000    11.067805    -0.711111
  C     11.360000    12.297561    -0.533333
  C      9.940000    12.297561    -0.533333
  C      9.230000    11.067805    -0.533333
  C      9.940000     9.838049    -0.533333
  C     11.360000     9.838049    -0.711111
  C     16.330000     3.689268    -1.244444
  C     15.620000     4.919024    -1.244444
  C     14.200000     4.919024    -1.244444
  C     13.490000     3.689268    -1.244444
  C     14.200000     2.459512    -1.422222
  C     15.620000     2.459512    -1.422222
  C     14.200000     0.000000    -1.600000
  C     13.490000     1.229756    -1.600000
  C     12.070000     1.229756    -1.600000
  C     11.360000     0.000000     1.600000
  C     12.070000    -1.229756     1.600000
  C     13.490000    -1.229756    -1.600000
  C      1.420000     0.000000     1.600000
  C      0.710000     1.229756     1.600000
  C     -0.710000     1.229756     1.600000
  C     -1.420000     0.000000     1.600000
  C     -0.710000    -1.229756     1.600000
  C      0.710000    -1.229756     1.600000
  C     -2.840000     7.378536     0.888889
  C     -3.550000     8.608293     0.711111
  C     -4.970000     8.608293     0.711111
  C     -5.680000     7.378536     0.888889
  C     -4.970000     6.148780     0.888889
  C     -3.550000     6.148780     0.888889
  C      3.550000    11.067805    -0.000000
  C      2.840000    12.297561    -0.000000
  C      1.420000    12.297561     0.177778
  C      0.710000    11.067805     0.177778
  C      1.420000     9.838049     0.177778
  C      2.840000     9.838049     0.177778
  C      7.810000    11.067805    -0.355556
  C      7.100000    12.297561    -0.355556
  C      5.680000    12.297561    -0.177778
  C      4.970000    11.067805    -0.177778
  C      5.680000     9.838049    -0.177778
  C      7.100000     9.838049    -0.177778
  C     14.200000     7.378536    -1.066667
  C     13.490000     8.608293    -0.888889
  C     12.070000     8.608293    -0.888889
  C     11.360000     7.378536    -0.888889
  C     12.070000     6.148780    -0.888889
  C     13.490000     6.148780    -1.066667
  C      9.940000     0.000000     1.600000
  C      9.230000     1.229756     1.600000
  C      7.810000     1.229756     1.600000
  C      7.100000     0.000000     1.600000
  C      7.810000    -1.229756     1.600000
  C      9.230000    -1.229756     1.600000
  C      5.680000     0.000000     1.600000
  C      4.970000     1.229756     1.600000
  C      3.550000     1.229756     1.600000
  C      2.840000     0.000000     1.600000
  C      3.550000    -1.229756     1.600000
  C      4.970000    -1.229756     1.600000
  C     -0.710000     3.689268     1.244444
  C     -1.420000     4.919024     1.244444
  C     -2.840000     4.919024     1.066667
  C     -3.550000     3.689268     1.066667
  C     -2.840000     2.459512     1.244444
  C     -1.420000     2.459512     1.244444
  C     -4.970000    11.067805     0.711111
  C     -5.680000     9.838049     0.711111
  C      9.230000    13.527317    -0.355556
  C      7.810000    13.527317    -0.355556
  C     16.330000     6.148780    -1.066667
  C     15.620000     7.378536    -1.066667
  C     16.330000     1.229756    -1.422222
  C     15.620000    -0.000000    -1.422222
  C      1.420000    -2.459512     1.600000
  C      2.840000    -2.459512     1.600000
  C     -5.680000     4.919024     1.066667
  C     -4.970000     3.689268     1.066667
  C      0.710000    13.527317     0.355556
  C     -0.710000    13.527317     0.355556
  C      4.970000    13.527317    -0.000000
  C      3.550000    13.527317    -0.000000
  C     14.200000     9.838049    -0.711111
  C     13.490000    11.067805    -0.711111
  C      9.940000    -2.459512     1.600000
  C     11.360000    -2.459512     1.600000
  C      5.680000    -2.459512     1.600000
  C      7.100000    -2.459512     1.600000
  C     -3.550000     1.229756     1.422222
  C     -2.840000     0.000000     1.422222
  C      1.420000     0.000000    -1.600000
  C      0.710000     1.229756    -1.600000
  C     -0.710000     1.229756    -1.600000
  C     -1.420000     0.000000    -1.600000
  C     -0.710000    -1.229756    -1.600000
  C      0.710000    -1.229756    -1.600000
  C      9.940000     0.000000    -1.600000
  C      9.230000     1.229756    -1.600000
  C      7.810000     1.229756    -1.600000
  C      7.100000     0.000000    -1.600000
  C      7.810000    -1.229756    -1.600000
  C      9.230000    -1.229756    -1.600000
  C     12.070000    -3.689268     1.353846
  C     11.360000    -2.459512    -1.600000
  C      9.940000    -2.459512    -1.600000
  C      9.230000    -3.689268     1.353846
  C      9.940000    -4.919024     1.353846
  C     11.360000    -4.919024     1.353846
  C      7.810000   -11.067805     0.615385
  C      7.100000    -9.838049     0.615385
  C      5.680000    -9.838049     0.369231
  C      4.970000   -11.067805     0.369231
  C      5.680000   -12.297561     0.369231
  C      7.100000   -12.297561     0.369231
  C      3.550000   -11.067805     0.123077
  C      2.840000    -9.838049    -0.123077
  C      1.420000    -9.838049    -0.123077
  C      0.710000   -11.067805    -0.123077
  C      1.420000   -12.297561    -0.123077
  C      2.840000   -12.297561     0.123077
  C     -0.710000    -3.689268    -1.107692
  C     -1.420000    -2.459512    -1.107692
  C     -2.840000    -2.459512    -1.107692
  C     -3.550000    -3.689268    -1.107692
  C     -2.840000    -4.919024    -0.861538
  C     -1.420000    -4.919024    -0.861538
  C      5.680000     0.000000    -1.600000
  C      4.970000     1.229756    -1.600000
  C      3.550000     1.229756    -1.600000
  C      2.840000     0.000000    -1.600000
  C      3.550000    -1.229756    -1.600000
  C      4.970000    -1.229756    -1.600000
  C      9.940000    -7.378536     1.107692
  C      9.230000    -6.148780     1.107692
  C      7.810000    -6.148780     0.861538
  C      7.100000    -7.378536     0.861538
  C      7.810000    -8.608293     0.861538
  C      9.230000    -8.608293     0.861538
  C      1.420000    -7.378536    -0.615385
  C      0.710000    -6.148780    -0.615385
  C     -0.710000    -6.148780    -0.615385
  C     -1.420000    -7.378536    -0.615385
  C     -0.710000    -8.608293    -0.369231
  C      0.710000    -8.608293    -0.369231
  C     -2.840000     0.000000    -1.353846
  C     -3.550000    -1.229756    -1.353846
  C      7.100000     2.459512    -1.600000
  C      5.680000     2.459512    -1.600000
  C     12.070000    -1.229756    -1.600000
  C     11.360000    -0.000000    -1.600000
  C      9.940000    -9.838049     0.615385
  C      9.230000   -11.067805     0.615385
  C      3.550000   -13.527317     0.123077
  C      4.970000   -13.527317     0.123077
  C     -3.550000    -6.148780    -0.861538
  C     -2.840000    -7.378536    -0.861538
  C      2.840000     2.459512    -1.600000
  C      1.420000     2.459512    -1.600000
  C     12.070000    -6.148780     1.107692
  C     11.360000    -7.378536     1.107692
  C     -1.420000    -9.838049    -0.369231
  C     -0.710000   -11.067805    -0.369231
  H     -3.374491    13.237894     0.668218
  H     -0.872893     8.905000     0.668218
  H     11.907107    13.230610    -0.398449
  H      9.405509     8.897716    -0.398449
  H     17.411597     3.681984    -1.109560
  H     12.408403     3.681984    -1.109560
  H     11.525000     2.173724    -1.600000
  H     11.905000     0.943968     1.600000
  H     13.160000    -1.229756     1.600000
  H     14.035000    -2.173724    -1.600000
  H      1.255000     2.173724     1.600000
  H     -1.255000    -2.173724     1.600000
  H     -1.758403     7.385820     1.023774
  H     -6.761597     7.385820     1.023774
  H      0.875000     8.894081     0.177778
  H      3.387107     8.905000     0.312663
  H      5.135000     8.894081    -0.177778
  H      7.647107     8.905000    -0.042893
  H     10.270000     7.378536    -0.888889
  H     11.535509     5.208448    -0.754004
  H      9.775000     2.173724     1.600000
  H      7.265000     2.173724     1.600000
  H      5.515000     2.173724     1.600000
  H      3.005000     2.173724     1.600000
  H      0.380000     3.689268     1.244444
  H     -0.885509     5.859357     1.379329
  H     -5.504491    12.008137     0.845996
  H     -6.770000     9.838049     0.711111
  H      9.777107    14.460366    -0.220671
  H      7.265000    14.471284    -0.355556
  H     17.411597     6.141497    -0.931782
  H     16.165000     8.322504    -1.066667
  H     17.420000     1.229756    -1.422222
  H     16.154491    -0.940333    -1.287337
  H      0.875000    -3.403480     1.600000
  H      3.385000    -3.403480     1.600000
  H     -6.761597     4.926308     1.201551
  H     -5.515000     2.745301     1.066667
  H      1.257107    14.460366     0.490440
  H     -1.255000    14.471284     0.355556
  H      5.517107    14.460366     0.134885
  H      3.005000    14.471284    -0.000000
  H     15.281597     9.830765    -0.576226
  H     14.035000    12.011772    -0.711111
  H      5.135000    -3.403480     1.600000
  H      7.350587    -3.446479     1.988849
  H     -4.631597     1.237040     1.557107
  H     -3.374491    -0.940333     1.287337
  H     -1.255000     2.173724    -1.600000
  H      1.255000    -2.173724    -1.600000
  H      9.775000     2.173724    -1.600000
  H      7.265000    -2.173724    -1.600000
  H     13.144129    -3.675498     1.169027
  H     11.905000    -3.403480    -1.600000
  H      9.395000    -3.403480    -1.600000
  H      8.348281    -3.908440     0.751654
  H      5.154861    -8.900941     0.184411
  H      7.648990   -13.220898     0.184411
  H      3.388990    -8.914711    -0.307897
  H      0.894861   -13.234668    -0.307897
  H      0.364129    -3.703038    -1.292512
  H     -4.624129    -3.703038    -1.292512
  H      3.005000    -2.173724    -1.600000
  H      5.515000    -2.173724    -1.600000
  H      7.284861    -5.211673     0.676719
  H      6.010000    -7.378536     0.861538
  H      2.494129    -7.392307    -0.800204
  H      1.255000    -5.204813    -0.615385
  H     -3.365139     0.937108    -1.169027
  H     -4.624129    -1.243526    -1.538666
  H      7.645000     3.403480    -1.600000
  H      5.135000     3.403480    -1.600000
  H     11.014129    -9.824278     0.430565
  H      9.775000   -12.011772     0.615385
  H      3.005000   -14.471284     0.123077
  H      5.518990   -14.450654    -0.061743
  H     -4.640000    -6.148780    -0.861538
  H     -3.365139    -8.315644    -1.046358
  H      3.385000     3.403480    -1.600000
  H      0.875000     3.403480    -1.600000
  H     13.144129    -6.135010     0.922873
  H     11.905000    -8.322504     1.107692
  H     -2.510000    -9.838049    -0.369231
  H     -1.235139   -12.004912    -0.554050
