252
C-infinitene <2,4,2,4,2,4|2,4,6,2,4,6>(0) EHMO: -240.63208130
  C      3.550000    11.067805     0.000000
  C      2.840000    12.297561     0.000000
  C      1.420000    12.297561    -0.228571
  C      0.710000    11.067805    -0.228571
  C      1.420000     9.838049    -0.228571
  C      2.840000     9.838049    -0.228571
  C      7.810000    11.067805     0.457143
  C      7.100000    12.297561     0.228571
  C      5.680000    12.297561     0.228571
  C      4.970000    11.067805     0.228571
  C      5.680000     9.838049     0.228571
  C      7.100000     9.838049     0.457143
  C     12.070000     3.689268     1.142857
  C     11.360000     4.919024     1.142857
  C      9.940000     4.919024     1.142857
  C      9.230000     3.689268     1.142857
  C      9.940000     2.459512     1.371429
  C     11.360000     2.459512     1.371429
  C      9.940000     0.000000     1.600000
  C      9.230000     1.229756     1.600000
  C      7.810000     1.229756     1.600000
  C      7.100000     0.000000    -1.600000
  C      7.810000    -1.229756    -1.600000
  C      9.230000    -1.229756     1.600000
  C      1.420000     0.000000    -1.600000
  C      0.710000     1.229756    -1.600000
  C     -0.710000     1.229756    -1.600000
  C     -1.420000     0.000000    -1.600000
  C     -0.710000    -1.229756    -1.600000
  C      0.710000    -1.229756    -1.600000
  C     -0.710000     3.689268    -1.142857
  C     -1.420000     4.919024    -0.914286
  C     -2.840000     4.919024    -0.914286
  C     -3.550000     3.689268    -1.142857
  C     -2.840000     2.459512    -1.142857
  C     -1.420000     2.459512    -1.142857
  C      9.940000     7.378536     0.914286
  C      9.230000     8.608293     0.685714
  C      7.810000     8.608293     0.685714
  C      7.100000     7.378536     0.685714
  C      7.810000     6.148780     0.685714
  C      9.230000     6.148780     0.914286
  C      5.680000     0.000000    -1.600000
  C      4.970000     1.229756    -1.600000
  C      3.550000     1.229756    -1.600000
  C      2.840000     0.000000    -1.600000
  C      3.550000    -1.229756    -1.600000
  C      4.970000    -1.229756    -1.600000
  C      1.420000     7.378536    -0.685714
  C      0.710000     8.608293    -0.457143
  C     -0.710000     8.608293    -0.457143
  C     -1.420000     7.378536    -0.685714
  C     -0.710000     6.148780    -0.685714
  C      0.710000     6.148780    -0.685714
  C     -0.710000    11.067805    -0.457143
  C     -1.420000     9.838049    -0.457143
  C      4.970000    13.527317     0.000000
  C      3.550000    13.527317     0.000000
  C     12.070000     6.148780     0.914286
  C     11.360000     7.378536     0.914286
  C     12.070000     1.229756     1.371429
  C     11.360000    -0.000000     1.371429
  C      1.420000    -2.459512    -1.600000
  C      2.840000    -2.459512    -1.600000
  C     -3.550000     1.229756    -1.371429
  C     -2.840000     0.000000    -1.371429
  C      9.940000     9.838049     0.457143
  C      9.230000    11.067805     0.457143
  C      5.680000    -2.459512    -1.600000
  C      7.100000    -2.459512    -1.600000
  C     -2.840000     7.378536    -0.914286
  C     -3.550000     6.148780    -0.914286
  C      1.420000     0.000000     1.600000
  C      0.710000     1.229756     1.600000
  C     -0.710000     1.229756     1.600000
  C     -1.420000     0.000000     1.600000
  C     -0.710000    -1.229756     1.600000
  C      0.710000    -1.229756     1.600000
  C      5.680000     0.000000     1.600000
  C      4.970000     1.229756     1.600000
  C      3.550000     1.229756     1.600000
  C      2.840000     0.000000     1.600000
  C      3.550000    -1.229756     1.600000
  C      4.970000    -1.229756     1.600000
  C      9.940000    -7.378536    -1.142857
  C      9.230000    -6.148780    -1.295238
  C      7.810000    -6.148780    -1.295238
  C      7.100000    -7.378536    -1.142857
  C      7.810000    -8.608293    -1.142857
  C      9.230000    -8.608293    -1.142857
  C      3.550000   -18.446341    -0.380952
  C      2.840000   -17.216585    -0.380952
  C      1.420000   -17.216585    -0.228571
  C      0.710000   -18.446341    -0.228571
  C      1.420000   -19.676097    -0.228571
  C      2.840000   -19.676097    -0.228571
  C     -0.710000   -18.446341    -0.076190
  C     -1.420000   -17.216585     0.076190
  C     -2.840000   -17.216585     0.076190
  C     -3.550000   -18.446341     0.076190
  C     -2.840000   -19.676097     0.076190
  C     -1.420000   -19.676097    -0.076190
  C     -4.970000   -11.067805     0.685714
  C     -5.680000    -9.838049     0.685714
  C     -7.100000    -9.838049     0.685714
  C     -7.810000   -11.067805     0.685714
  C     -7.100000   -12.297561     0.533333
  C     -5.680000   -12.297561     0.533333
  C      7.810000    -3.689268    -1.447619
  C      7.100000    -2.459512     1.600000
  C      5.680000    -2.459512     1.600000
  C      4.970000    -3.689268    -1.447619
  C      5.680000    -4.919024    -1.447619
  C      7.100000    -4.919024    -1.447619
  C      7.810000   -11.067805    -0.990476
  C      7.100000    -9.838049    -0.990476
  C      5.680000    -9.838049    -0.838095
  C      4.970000   -11.067805    -0.838095
  C      5.680000   -12.297561    -0.838095
  C      7.100000   -12.297561    -0.838095
  C      5.680000   -14.757073    -0.685714
  C      4.970000   -13.527317    -0.685714
  C      3.550000   -13.527317    -0.533333
  C      2.840000   -14.757073    -0.533333
  C      3.550000   -15.986829    -0.533333
  C      4.970000   -15.986829    -0.533333
  C     -2.840000   -14.757073     0.380952
  C     -3.550000   -13.527317     0.380952
  C     -4.970000   -13.527317     0.380952
  C     -5.680000   -14.757073     0.380952
  C     -4.970000   -15.986829     0.228571
  C     -3.550000   -15.986829     0.228571
  C     -2.840000    -7.378536     0.990476
  C     -3.550000    -6.148780     0.990476
  C     -4.970000    -6.148780     0.990476
  C     -5.680000    -7.378536     0.838095
  C     -4.970000    -8.608293     0.838095
  C     -3.550000    -8.608293     0.990476
  C     -0.710000    -3.689268     1.295238
  C     -1.420000    -2.459512     1.295238
  C     -2.840000    -2.459512     1.295238
  C     -3.550000    -3.689268     1.142857
  C     -2.840000    -4.919024     1.142857
  C     -1.420000    -4.919024     1.295238
  C     -2.840000     0.000000     1.447619
  C     -3.550000    -1.229756     1.447619
  C      2.840000     2.459512     1.600000
  C      1.420000     2.459512     1.600000
  C      9.940000    -4.919024    -1.295238
  C      9.230000    -3.689268    -1.295238
  C      5.680000   -17.216585    -0.380952
  C      4.970000   -18.446341    -0.380952
  C     -0.710000   -20.905853    -0.076190
  C      0.710000   -20.905853    -0.076190
  C     -7.810000   -13.527317     0.533333
  C     -7.100000   -14.757073     0.533333
  C      7.810000    -1.229756     1.600000
  C      7.100000    -0.000000     1.600000
  C      9.940000    -9.838049    -0.990476
  C      9.230000   -11.067805    -0.990476
  C      7.810000   -13.527317    -0.685714
  C      7.100000   -14.757073    -0.685714
  C     -5.680000   -17.216585     0.228571
  C     -4.970000   -18.446341     0.228571
  C     -7.100000    -7.378536     0.838095
  C     -7.810000    -8.608293     0.838095
  C     -4.970000    -3.689268     1.142857
  C     -5.680000    -4.919024     1.142857
  H      0.892196    13.235587    -0.400704
  H      3.388452     8.911944    -0.400704
  H      7.648452    13.223666     0.056439
  H      5.152196     8.900023     0.056439
  H     13.146257     3.677347     0.970725
  H      8.153743     3.677347     0.970725
  H      7.265000     2.173724     1.600000
  H      7.645000     0.943968    -1.600000
  H      8.900000    -1.229756    -1.600000
  H      9.775000    -2.173724     1.600000
  H      1.255000     2.173724    -1.600000
  H     -1.255000    -2.173724    -1.600000
  H      0.366257     3.701189    -1.314990
  H     -4.626257     3.701189    -1.314990
  H      6.010000     7.378536     0.685714
  H      7.282196     5.210754     0.513582
  H      5.515000     2.173724    -1.600000
  H      3.005000     2.173724    -1.600000
  H      2.496257     7.390457    -0.857847
  H      1.255000     5.204813    -0.685714
  H     -1.237804    12.005831    -0.629275
  H     -2.510000     9.838049    -0.457143
  H      5.518452    14.453422    -0.172133
  H      3.005000    14.471284     0.000000
  H     13.146257     6.136859     0.742153
  H     11.905000     8.322504     0.914286
  H     13.160000     1.229756     1.371429
  H     11.887804    -0.938026     1.199296
  H      0.875000    -3.403480    -1.600000
  H      2.988906    -3.481391    -1.948843
  H     -4.626257     1.241677    -1.543561
  H     -3.367804    -0.938026    -1.199296
  H     11.016257     9.826128     0.285010
  H      9.775000    12.011772     0.457143
  H     -3.367804     8.316562    -1.086418
  H     -4.640000     6.148780    -0.914286
  H     -1.255000     2.173724     1.600000
  H      1.255000    -2.173724     1.600000
  H      5.515000     2.173724     1.600000
  H      3.005000    -2.173724     1.600000
  H     11.023800    -7.373163    -1.026887
  H      6.016200    -7.373163    -1.026887
  H      0.882754   -16.275300    -0.112601
  H      3.386553   -20.612009    -0.112601
  H     -0.873447   -16.280674     0.192161
  H     -3.377246   -20.617382     0.192161
  H     -3.886200   -11.073178     0.801685
  H     -8.893800   -11.073178     0.801685
  H      7.645000    -3.403480     1.600000
  H      5.135000    -3.403480     1.600000
  H      4.069053    -4.037554    -0.942552
  H      5.135000    -5.862992    -1.447619
  H      5.142754    -8.896764    -0.722125
  H      3.880000   -11.067805    -0.838095
  H      3.012754   -12.586032    -0.417363
  H      1.750000   -14.757073    -0.533333
  H     -1.756200   -14.762446     0.496923
  H     -3.005000   -12.583349     0.380952
  H     -1.750000    -7.378536     0.990476
  H     -3.012754    -9.549577     1.106446
  H      0.380000    -3.689268     1.295238
  H     -0.882754    -5.860309     1.411208
  H     -3.377246     0.941285     1.331649
  H     -4.633800    -1.235129     1.563589
  H      3.385000     3.403480     1.600000
  H      0.875000     3.403480     1.600000
  H     11.030000    -4.919024    -1.295238
  H      9.767246    -2.747983    -1.179268
  H      6.763800   -17.211212    -0.264982
  H      5.515000   -19.390309    -0.380952
  H     -1.255000   -21.849821    -0.076190
  H      1.256553   -21.841765     0.039780
  H     -8.900000   -13.527317     0.533333
  H     -7.637246   -15.698358     0.649304
  H     11.023800    -9.832675    -0.874506
  H      9.775000   -12.011772    -0.990476
  H      8.893800   -13.521943    -0.569744
  H      7.645000   -15.701041    -0.685714
  H     -6.770000   -17.216585     0.228571
  H     -5.507246   -19.387626     0.344542
  H     -7.645000    -6.434569     0.838095
  H     -8.893800    -8.613666     0.954065
  H     -5.515000    -2.745301     1.142857
  H     -6.763800    -4.924398     1.258827
