192
C-infinitene <2,2,2,2,2,2|2,4,4,2,4,4>(-2) EHMO: -183.16784538
  C      1.420000     7.378536     0.000000
  C      0.710000     8.608293     0.000000
  C     -0.710000     8.608293    -0.320000
  C     -1.420000     7.378536    -0.320000
  C     -0.710000     6.148780    -0.320000
  C      0.710000     6.148780    -0.320000
  C      5.680000     7.378536     0.640000
  C      4.970000     8.608293     0.320000
  C      3.550000     8.608293     0.320000
  C      2.840000     7.378536     0.320000
  C      3.550000     6.148780     0.320000
  C      4.970000     6.148780     0.640000
  C      7.810000     3.689268     0.960000
  C      7.100000     4.919024     0.960000
  C      5.680000     4.919024     0.960000
  C      4.970000     3.689268     0.960000
  C      5.680000     2.459512     1.280000
  C      7.100000     2.459512     1.280000
  C      5.680000    -0.000000     1.600000
  C      4.970000     1.229756     1.600000
  C      3.550000     1.229756     1.600000
  C      2.840000    -0.000000    -1.600000
  C      3.550000    -1.229756    -1.600000
  C      4.970000    -1.229756     1.600000
  C      1.420000    -0.000000    -1.600000
  C      0.710000     1.229756    -1.600000
  C     -0.710000     1.229756    -1.600000
  C     -1.420000    -0.000000    -1.600000
  C     -0.710000    -1.229756    -1.600000
  C      0.710000    -1.229756    -1.600000
  C     -0.710000     3.689268    -0.960000
  C     -1.420000     4.919024    -0.640000
  C     -2.840000     4.919024    -0.640000
  C     -3.550000     3.689268    -0.960000
  C     -2.840000     2.459512    -0.960000
  C     -1.420000     2.459512    -0.960000
  C     -2.840000     7.378536    -0.640000
  C     -3.550000     6.148780    -0.640000
  C      2.840000     9.838049     0.000000
  C      1.420000     9.838049     0.000000
  C      7.810000     6.148780     0.640000
  C      7.100000     7.378536     0.640000
  C      7.810000     1.229756     1.280000
  C      7.100000    -0.000000     1.280000
  C      1.420000    -2.459512    -1.600000
  C      2.840000    -2.459512    -1.600000
  C     -3.550000     1.229756    -1.280000
  C     -2.840000     0.000000    -1.280000
  C     -2.840000    -0.000000     1.600000
  C     -3.550000     1.229756     1.600000
  C     -4.970000     1.229756     1.600000
  C     -5.680000    -0.000000     1.600000
  C     -4.970000    -1.229756     1.600000
  C     -3.550000    -1.229756     1.600000
  C      1.420000    -0.000000     1.600000
  C      0.710000     1.229756     1.600000
  C     -0.710000     1.229756     1.600000
  C     -1.420000    -0.000000     1.600000
  C     -0.710000    -1.229756     1.600000
  C      0.710000    -1.229756     1.600000
  C      5.680000    -7.378536    -1.035294
  C      4.970000    -6.148780    -1.223529
  C      3.550000    -6.148780    -1.223529
  C      2.840000    -7.378536    -1.035294
  C      3.550000    -8.608293    -1.035294
  C      4.970000    -8.608293    -1.035294
  C      1.420000   -14.757073    -0.470588
  C      0.710000   -13.527317    -0.470588
  C     -0.710000   -13.527317    -0.282353
  C     -1.420000   -14.757073    -0.282353
  C     -0.710000   -15.986829    -0.282353
  C      0.710000   -15.986829    -0.282353
  C     -2.840000   -14.757073    -0.094118
  C     -3.550000   -13.527317     0.094118
  C     -4.970000   -13.527317     0.094118
  C     -5.680000   -14.757073     0.094118
  C     -4.970000   -15.986829     0.094118
  C     -3.550000   -15.986829    -0.094118
  C     -7.100000    -7.378536     0.847059
  C     -7.810000    -6.148780     0.847059
  C     -9.230000    -6.148780     0.847059
  C     -9.940000    -7.378536     0.847059
  C     -9.230000    -8.608293     0.658824
  C     -7.810000    -8.608293     0.658824
  C      3.550000    -3.689268    -1.411765
  C      2.840000    -2.459512     1.600000
  C      1.420000    -2.459512     1.600000
  C      0.710000    -3.689268    -1.411765
  C      1.420000    -4.919024    -1.411765
  C      2.840000    -4.919024    -1.411765
  C      3.550000   -11.067805    -0.847059
  C      2.840000    -9.838049    -0.847059
  C      1.420000    -9.838049    -0.658824
  C      0.710000   -11.067805    -0.658824
  C      1.420000   -12.297561    -0.658824
  C      2.840000   -12.297561    -0.658824
  C     -4.970000   -11.067805     0.470588
  C     -5.680000    -9.838049     0.470588
  C     -7.100000    -9.838049     0.470588
  C     -7.810000   -11.067805     0.470588
  C     -7.100000   -12.297561     0.282353
  C     -5.680000   -12.297561     0.282353
  C     -4.970000    -3.689268     1.223529
  C     -5.680000    -2.459512     1.223529
  C     -7.100000    -2.459512     1.223529
  C     -7.810000    -3.689268     1.035294
  C     -7.100000    -4.919024     1.035294
  C     -5.680000    -4.919024     1.223529
  C     -7.100000     0.000000     1.411765
  C     -7.810000    -1.229756     1.411765
  C     -1.420000     2.459512     1.600000
  C     -2.840000     2.459512     1.600000
  C      5.680000    -4.919024    -1.223529
  C      4.970000    -3.689268    -1.223529
  C      3.550000   -13.527317    -0.470588
  C      2.840000   -14.757073    -0.470588
  C     -2.840000   -17.216585    -0.094118
  C     -1.420000   -17.216585    -0.094118
  C     -9.940000    -9.838049     0.658824
  C     -9.230000   -11.067805     0.658824
  C      3.550000    -1.229756     1.600000
  C      2.840000    -0.000000     1.600000
  C      5.680000    -9.838049    -0.847059
  C      4.970000   -11.067805    -0.847059
  C     -7.810000   -13.527317     0.282353
  C     -7.100000   -14.757073     0.282353
  C     -9.230000    -3.689268     1.035294
  C     -9.940000    -4.919024     1.035294
  H     -1.222108     9.540921    -0.556746
  H      1.261626     5.238967    -0.556746
  H      5.521626     9.518106     0.083254
  H      3.037892     5.216152     0.083254
  H      8.873734     3.666453     0.723254
  H      3.906266     3.666453     0.723254
  H      3.005000     2.173724     1.600000
  H      3.385000     0.943968    -1.600000
  H      4.640000    -1.229756    -1.600000
  H      5.515000    -2.173724     1.600000
  H      1.255000     2.173724    -1.600000
  H     -1.255000    -2.173724    -1.600000
  H      0.353734     3.712084    -1.196746
  H     -4.613734     3.712084    -1.196746
  H     -3.352108     8.311165    -0.876746
  H     -4.640000     6.148780    -0.640000
  H      3.391626    10.747862    -0.236746
  H      0.875000    10.782016     0.000000
  H      8.873734     6.125965     0.403254
  H      7.645000     8.322504     0.640000
  H      8.900000     1.229756     1.280000
  H      7.612108    -0.932629     1.043254
  H     -4.613734     1.252572    -1.516746
  H     -3.352108    -0.932629    -1.043254
  H     -5.515000     2.173724     1.600000
  H     -3.005000    -2.173724     1.600000
  H      1.255000     2.173724     1.600000
  H     -1.255000    -2.173724     1.600000
  H      6.760598    -7.370386    -0.892674
  H      1.759402    -7.370386    -0.892674
  H     -1.243240   -12.587416    -0.139733
  H      1.257358   -16.918579    -0.139733
  H     -3.002642   -12.595567     0.236738
  H     -5.503240   -16.926730     0.236738
  H     -6.019402    -7.386687     0.989679
  H    -11.020598    -7.386687     0.989679
  H      3.385000    -3.403480     1.600000
  H      0.875000    -3.403480     1.600000
  H     -0.370598    -3.681117    -1.269144
  H      0.875000    -5.862992    -1.411765
  H      0.886760    -8.898147    -0.516203
  H     -0.380000   -11.067805    -0.658824
  H     -3.889402   -11.075955     0.613209
  H     -5.135000    -8.894081     0.470588
  H     -3.880000    -3.689268     1.223529
  H     -5.146760    -5.858925     1.366150
  H     -7.633240     0.939901     1.269144
  H     -8.890598    -1.237907     1.554385
  H     -0.875000     3.403480     1.600000
  H     -3.385000     3.403480     1.600000
  H      6.770000    -4.919024    -1.223529
  H      5.503240    -2.749367    -1.080909
  H      4.630598   -13.519166    -0.327968
  H      3.385000   -15.701041    -0.470588
  H     -3.385000   -18.160553    -0.094118
  H     -0.872642   -18.148335     0.048503
  H    -11.030000    -9.838049     0.658824
  H     -9.763240   -12.007706     0.801444
  H      6.760598    -9.829898    -0.704438
  H      5.515000   -12.011772    -0.847059
  H     -8.900000   -13.527317     0.282353
  H     -7.633240   -15.696974     0.424973
  H     -9.775000    -2.745301     1.035294
  H    -11.020598    -4.927175     1.177915
