252
C-infinitene <2,4,2,4,2,4|6,2,4,6,2,4>(-2) EHMO: -240.75452050
  C      3.550000    11.067805     0.355556
  C      2.840000    12.297561     0.355556
  C      1.420000    12.297561     0.533333
  C      0.710000    11.067805     0.533333
  C      1.420000     9.838049     0.533333
  C      2.840000     9.838049     0.533333
  C     16.330000    11.067805    -0.711111
  C     15.620000    12.297561    -0.533333
  C     14.200000    12.297561    -0.533333
  C     13.490000    11.067805    -0.533333
  C     14.200000     9.838049    -0.533333
  C     15.620000     9.838049    -0.711111
  C     18.460000     7.378536    -0.888889
  C     17.750000     8.608293    -0.888889
  C     16.330000     8.608293    -0.888889
  C     15.620000     7.378536    -0.888889
  C     16.330000     6.148780    -1.066667
  C     17.750000     6.148780    -1.066667
  C     14.200000     0.000000     1.600000
  C     13.490000     1.229756     1.600000
  C     12.070000     1.229756     1.600000
  C     11.360000     0.000000     1.600000
  C     12.070000    -1.229756     1.600000
  C     13.490000    -1.229756     1.600000
  C      1.420000     0.000000     1.600000
  C      0.710000     1.229756     1.600000
  C     -0.710000     1.229756     1.600000
  C     -1.420000     0.000000     1.600000
  C     -0.710000    -1.229756     1.600000
  C      0.710000    -1.229756     1.600000
  C     -0.710000     3.689268     1.244444
  C     -1.420000     4.919024     1.066667
  C     -2.840000     4.919024     1.066667
  C     -3.550000     3.689268     1.244444
  C     -2.840000     2.459512     1.244444
  C     -1.420000     2.459512     1.244444
  C      7.810000    11.067805    -0.000000
  C      7.100000    12.297561    -0.000000
  C      5.680000    12.297561     0.177778
  C      4.970000    11.067805     0.177778
  C      5.680000     9.838049     0.177778
  C      7.100000     9.838049     0.177778
  C     12.070000    11.067805    -0.355556
  C     11.360000    12.297561    -0.355556
  C      9.940000    12.297561    -0.177778
  C      9.230000    11.067805    -0.177778
  C      9.940000     9.838049    -0.177778
  C     11.360000     9.838049    -0.177778
  C     16.330000     3.689268    -1.244444
  C     15.620000     4.919024    -1.244444
  C     14.200000     4.919024    -1.244444
  C     13.490000     3.689268    -1.244444
  C     14.200000     2.459512    -1.422222
  C     15.620000     2.459512    -1.422222
  C      9.940000     0.000000     1.600000
  C      9.230000     1.229756     1.600000
  C      7.810000     1.229756     1.600000
  C      7.100000     0.000000     1.600000
  C      7.810000    -1.229756     1.600000
  C      9.230000    -1.229756     1.600000
  C      5.680000     0.000000     1.600000
  C      4.970000     1.229756     1.600000
  C      3.550000     1.229756     1.600000
  C      2.840000     0.000000     1.600000
  C      3.550000    -1.229756     1.600000
  C      4.970000    -1.229756     1.600000
  C      1.420000     7.378536     0.888889
  C      0.710000     8.608293     0.711111
  C     -0.710000     8.608293     0.711111
  C     -1.420000     7.378536     0.888889
  C     -0.710000     6.148780     0.888889
  C      0.710000     6.148780     0.888889
  C     -0.710000    11.067805     0.711111
  C     -1.420000     9.838049     0.711111
  C     13.490000    13.527317    -0.355556
  C     12.070000    13.527317    -0.355556
  C     18.460000     9.838049    -0.711111
  C     17.750000    11.067805    -0.711111
  C     16.330000     1.229756    -1.422222
  C     15.620000    -0.000000    -1.422222
  C      1.420000    -2.459512     1.600000
  C      2.840000    -2.459512     1.600000
  C     -3.550000     1.229756     1.422222
  C     -2.840000     0.000000     1.422222
  C      4.970000    13.527317     0.355556
  C      3.550000    13.527317     0.355556
  C      9.230000    13.527317    -0.000000
  C      7.810000    13.527317    -0.000000
  C     18.460000     4.919024    -1.066667
  C     17.750000     3.689268    -1.066667
  C      9.940000    -2.459512     1.600000
  C     11.360000    -2.459512     1.600000
  C      5.680000    -2.459512     1.600000
  C      7.100000    -2.459512     1.600000
  C     -2.840000     7.378536     1.066667
  C     -3.550000     6.148780     1.066667
  C      5.680000     0.000000    -1.600000
  C      4.970000     1.229756    -1.600000
  C      3.550000     1.229756    -1.600000
  C      2.840000     0.000000    -1.600000
  C      3.550000    -1.229756    -1.600000
  C      4.970000    -1.229756    -1.600000
  C     14.200000     0.000000    -1.600000
  C     13.490000     1.229756    -1.600000
  C     12.070000     1.229756    -1.600000
  C     11.360000     0.000000    -1.600000
  C     12.070000    -1.229756    -1.600000
  C     13.490000    -1.229756    -1.600000
  C     16.330000    -3.689268     1.142857
  C     15.620000    -2.459512     1.371429
  C     14.200000    -2.459512     1.371429
  C     13.490000    -3.689268     1.142857
  C     14.200000    -4.919024     1.142857
  C     15.620000    -4.919024     1.142857
  C     12.070000   -11.067805     0.457143
  C     11.360000    -9.838049     0.457143
  C      9.940000    -9.838049     0.228571
  C      9.230000   -11.067805     0.228571
  C      9.940000   -12.297561     0.228571
  C     11.360000   -12.297561     0.228571
  C      7.810000   -11.067805    -0.000000
  C      7.100000    -9.838049    -0.228571
  C      5.680000    -9.838049    -0.228571
  C      4.970000   -11.067805    -0.228571
  C      5.680000   -12.297561    -0.228571
  C      7.100000   -12.297561    -0.000000
  C      3.550000    -3.689268    -1.142857
  C      2.840000    -2.459512    -1.142857
  C      1.420000    -2.459512    -1.142857
  C      0.710000    -3.689268    -1.142857
  C      1.420000    -4.919024    -0.914286
  C      2.840000    -4.919024    -0.914286
  C      9.940000     0.000000    -1.600000
  C      9.230000     1.229756    -1.600000
  C      7.810000     1.229756    -1.600000
  C      7.100000     0.000000    -1.600000
  C      7.810000    -1.229756    -1.600000
  C      9.230000    -1.229756    -1.600000
  C     14.200000    -7.378536     0.914286
  C     13.490000    -6.148780     0.914286
  C     12.070000    -6.148780     0.685714
  C     11.360000    -7.378536     0.685714
  C     12.070000    -8.608293     0.685714
  C     13.490000    -8.608293     0.685714
  C      5.680000    -7.378536    -0.685714
  C      4.970000    -6.148780    -0.685714
  C      3.550000    -6.148780    -0.685714
  C      2.840000    -7.378536    -0.685714
  C      3.550000    -8.608293    -0.457143
  C      4.970000    -8.608293    -0.457143
  C      1.420000     0.000000    -1.371429
  C      0.710000    -1.229756    -1.371429
  C     11.360000     2.459512    -1.600000
  C      9.940000     2.459512    -1.600000
  C     16.330000    -1.229756     1.371429
  C     15.620000    -0.000000     1.371429
  C     14.200000    -9.838049     0.457143
  C     13.490000   -11.067805     0.457143
  C      7.810000   -13.527317    -0.000000
  C      9.230000   -13.527317    -0.000000
  C      0.710000    -6.148780    -0.914286
  C      1.420000    -7.378536    -0.914286
  C      7.100000     2.459512    -1.600000
  C      5.680000     2.459512    -1.600000
  C     16.330000    -6.148780     0.914286
  C     15.620000    -7.378536     0.914286
  C      2.840000    -9.838049    -0.457143
  C      3.550000   -11.067805    -0.457143
  H      0.885509    13.237894     0.668218
  H      3.387107     8.905000     0.668218
  H     16.167107    13.230610    -0.398449
  H     13.665509     8.897716    -0.398449
  H     19.541597     7.371253    -0.754004
  H     14.538403     7.371253    -0.754004
  H     14.035000     2.173724     1.600000
  H     11.525000     2.173724     1.600000
  H      1.255000     2.173724     1.600000
  H     -1.255000    -2.173724     1.600000
  H      0.371597     3.696552     1.379329
  H     -4.631597     3.696552     1.379329
  H      5.135000     8.894081     0.177778
  H      7.647107     8.905000     0.312663
  H      9.395000     8.894081    -0.177778
  H     11.907107     8.905000    -0.042893
  H     13.655000     5.862992    -1.244444
  H     12.535744     3.869768    -0.749556
  H      9.775000     2.173724     1.600000
  H      7.265000     2.173724     1.600000
  H      5.515000     2.173724     1.600000
  H      3.005000     2.173724     1.600000
  H      2.501597     7.385820     1.023774
  H      1.255000     5.204813     0.888889
  H     -1.244491    12.008137     0.845996
  H     -2.510000     9.838049     0.711111
  H     14.037107    14.460366    -0.220671
  H     11.525000    14.471284    -0.355556
  H     19.541597     9.830765    -0.576226
  H     18.295000    12.011772    -0.711111
  H     17.420000     1.229756    -1.422222
  H     16.154491    -0.940333    -1.287337
  H      0.875000    -3.403480     1.600000
  H      3.385000    -3.403480     1.600000
  H     -4.631597     1.237040     1.557107
  H     -3.374491    -0.940333     1.287337
  H      5.517107    14.460366     0.490440
  H      3.005000    14.471284     0.355556
  H      9.777107    14.460366     0.134885
  H      7.265000    14.471284    -0.000000
  H     19.550000     4.919024    -1.066667
  H     18.284491     2.748935    -0.931782
  H      9.395000    -3.403480     1.600000
  H     11.704561    -3.421783     1.978698
  H      5.135000    -3.403480     1.600000
  H      7.645000    -3.403480     1.600000
  H     -3.374491     8.318869     1.201551
  H     -4.640000     6.148780     1.066667
  H      3.005000     2.173724    -1.600000
  H      5.515000    -2.173724    -1.600000
  H     11.525000    -2.173724    -1.600000
  H     14.035000    -2.173724    -1.600000
  H     17.406257    -3.677347     0.970725
  H     12.566125    -3.834581     0.583000
  H      9.412196    -8.900023     0.056439
  H     11.908452   -13.223666     0.056439
  H      7.648452    -8.911944    -0.400704
  H      5.152196   -13.235587    -0.400704
  H      4.626257    -3.701189    -1.314990
  H     -0.366257    -3.701189    -1.314990
  H      7.265000    -2.173724    -1.600000
  H      9.775000    -2.173724    -1.600000
  H     11.542196    -5.210754     0.513582
  H     10.270000    -7.378536     0.685714
  H      6.756257    -7.390457    -0.857847
  H      5.515000    -5.204813    -0.685714
  H      0.892196     0.938026    -1.199296
  H     -0.366257    -1.241677    -1.543561
  H     11.687419     3.441114    -1.942569
  H      9.395000     3.403480    -1.600000
  H     17.420000    -1.229756     1.371429
  H     16.147804     0.938026     1.199296
  H     15.276257    -9.826128     0.285010
  H     14.035000   -12.011772     0.457143
  H      7.265000   -14.471284    -0.000000
  H      9.778452   -14.453422    -0.172133
  H     -0.380000    -6.148780    -0.914286
  H      0.892196    -8.316562    -1.086418
  H      7.645000     3.403480    -1.600000
  H      5.135000     3.403480    -1.600000
  H     17.406257    -6.136859     0.742153
  H     16.165000    -8.322504     0.914286
  H      1.750000    -9.838049    -0.457143
  H      3.022196   -12.005831    -0.629275
