192
C-infinitene <2,2,2,2,2,2|4,4,2,4,4,2>(0) EHMO: -183.16246516
  C     -0.710000    11.067805     0.200000
  C     -1.420000    12.297561     0.200000
  C     -2.840000    12.297561     0.400000
  C     -3.550000    11.067805     0.400000
  C     -2.840000     9.838049     0.400000
  C     -1.420000     9.838049     0.400000
  C      7.810000    11.067805    -0.600000
  C      7.100000    12.297561    -0.400000
  C      5.680000    12.297561    -0.400000
  C      4.970000    11.067805    -0.400000
  C      5.680000     9.838049    -0.400000
  C      7.100000     9.838049    -0.600000
  C     12.070000     3.689268    -1.200000
  C     11.360000     4.919024    -1.200000
  C      9.940000     4.919024    -1.200000
  C      9.230000     3.689268    -1.200000
  C      9.940000     2.459512    -1.400000
  C     11.360000     2.459512    -1.400000
  C      9.940000     0.000000    -1.600000
  C      9.230000     1.229756    -1.600000
  C      7.810000     1.229756    -1.600000
  C      7.100000     0.000000     1.600000
  C      7.810000    -1.229756     1.600000
  C      9.230000    -1.229756    -1.600000
  C      1.420000     0.000000     1.600000
  C      0.710000     1.229756     1.600000
  C     -0.710000     1.229756     1.600000
  C     -1.420000     0.000000     1.600000
  C     -0.710000    -1.229756     1.600000
  C      0.710000    -1.229756     1.600000
  C     -2.840000     7.378536     0.800000
  C     -3.550000     8.608293     0.600000
  C     -4.970000     8.608293     0.600000
  C     -5.680000     7.378536     0.800000
  C     -4.970000     6.148780     0.800000
  C     -3.550000     6.148780     0.800000
  C      3.550000    11.067805    -0.200000
  C      2.840000    12.297561    -0.200000
  C      1.420000    12.297561    -0.000000
  C      0.710000    11.067805    -0.000000
  C      1.420000     9.838049    -0.000000
  C      2.840000     9.838049    -0.000000
  C      9.940000     7.378536    -1.000000
  C      9.230000     8.608293    -0.800000
  C      7.810000     8.608293    -0.800000
  C      7.100000     7.378536    -0.800000
  C      7.810000     6.148780    -0.800000
  C      9.230000     6.148780    -1.000000
  C      5.680000     0.000000     1.600000
  C      4.970000     1.229756     1.600000
  C      3.550000     1.229756     1.600000
  C      2.840000     0.000000     1.600000
  C      3.550000    -1.229756     1.600000
  C      4.970000    -1.229756     1.600000
  C     -0.710000     3.689268     1.200000
  C     -1.420000     4.919024     1.200000
  C     -2.840000     4.919024     1.000000
  C     -3.550000     3.689268     1.000000
  C     -2.840000     2.459512     1.200000
  C     -1.420000     2.459512     1.200000
  C     -4.970000    11.067805     0.600000
  C     -5.680000     9.838049     0.600000
  C      4.970000    13.527317    -0.200000
  C      3.550000    13.527317    -0.200000
  C     12.070000     6.148780    -1.000000
  C     11.360000     7.378536    -1.000000
  C     12.070000     1.229756    -1.400000
  C     11.360000    -0.000000    -1.400000
  C      1.420000    -2.459512     1.600000
  C      2.840000    -2.459512     1.600000
  C     -5.680000     4.919024     1.000000
  C     -4.970000     3.689268     1.000000
  C      0.710000    13.527317     0.200000
  C     -0.710000    13.527317     0.200000
  C      9.940000     9.838049    -0.600000
  C      9.230000    11.067805    -0.600000
  C      5.680000    -2.459512     1.600000
  C      7.100000    -2.459512     1.600000
  C     -3.550000     1.229756     1.400000
  C     -2.840000     0.000000     1.400000
  C      1.420000     0.000000    -1.600000
  C      0.710000     1.229756    -1.600000
  C     -0.710000     1.229756    -1.600000
  C     -1.420000     0.000000    -1.600000
  C     -0.710000    -1.229756    -1.600000
  C      0.710000    -1.229756    -1.600000
  C      5.680000     0.000000    -1.600000
  C      4.970000     1.229756    -1.600000
  C      3.550000     1.229756    -1.600000
  C      2.840000     0.000000    -1.600000
  C      3.550000    -1.229756    -1.600000
  C      4.970000    -1.229756    -1.600000
  C      7.810000    -3.689268     1.244444
  C      7.100000    -2.459512    -1.600000
  C      5.680000    -2.459512    -1.600000
  C      4.970000    -3.689268     1.244444
  C      5.680000    -4.919024     1.244444
  C      7.100000    -4.919024     1.244444
  C      5.680000    -7.378536     0.888889
  C      4.970000    -6.148780     0.888889
  C      3.550000    -6.148780     0.533333
  C      2.840000    -7.378536     0.533333
  C      3.550000    -8.608293     0.533333
  C      4.970000    -8.608293     0.533333
  C      1.420000    -7.378536     0.177778
  C      0.710000    -6.148780    -0.177778
  C     -0.710000    -6.148780    -0.177778
  C     -1.420000    -7.378536    -0.177778
  C     -0.710000    -8.608293    -0.177778
  C      0.710000    -8.608293     0.177778
  C     -0.710000    -3.689268    -0.888889
  C     -1.420000    -2.459512    -0.888889
  C     -2.840000    -2.459512    -0.888889
  C     -3.550000    -3.689268    -0.888889
  C     -2.840000    -4.919024    -0.533333
  C     -1.420000    -4.919024    -0.533333
  C     -2.840000     0.000000    -1.244444
  C     -3.550000    -1.229756    -1.244444
  C      2.840000     2.459512    -1.600000
  C      1.420000     2.459512    -1.600000
  C      7.810000    -1.229756    -1.600000
  C      7.100000    -0.000000    -1.600000
  C      7.810000    -6.148780     0.888889
  C      7.100000    -7.378536     0.888889
  C      1.420000    -9.838049     0.177778
  C      2.840000    -9.838049     0.177778
  C     -3.550000    -6.148780    -0.533333
  C     -2.840000    -7.378536    -0.533333
  H     -3.371755    13.236949     0.551283
  H     -0.872343     8.907841     0.551283
  H      7.647657    13.227768    -0.248717
  H      5.148245     8.898660    -0.248717
  H     13.149411     3.680087    -1.048717
  H      8.150589     3.680087    -1.048717
  H      7.265000     2.173724    -1.600000
  H      7.645000     0.943968     1.600000
  H      8.900000    -1.229756     1.600000
  H      9.775000    -2.173724    -1.600000
  H      1.255000     2.173724     1.600000
  H     -1.255000    -2.173724     1.600000
  H     -1.760589     7.387718     0.951283
  H     -6.759411     7.387718     0.951283
  H      0.875000     8.894081    -0.000000
  H      3.387657     8.907841     0.151283
  H      6.010000     7.378536    -0.800000
  H      7.278245     5.209392    -0.648717
  H      5.515000     2.173724     1.600000
  H      3.005000     2.173724     1.600000
  H      0.380000     3.689268     1.200000
  H     -0.888245     5.858413     1.351283
  H     -5.501755    12.007193     0.751283
  H     -6.770000     9.838049     0.600000
  H      5.517657    14.457524    -0.048717
  H      3.005000    14.471284    -0.200000
  H     13.149411     6.139599    -0.848717
  H     11.905000     8.322504    -1.000000
  H     13.160000     1.229756    -1.400000
  H     11.891755    -0.939388    -1.248717
  H      0.875000    -3.403480     1.600000
  H      3.172501    -3.429156     1.970587
  H     -6.759411     4.928205     1.151283
  H     -5.515000     2.745301     1.000000
  H      1.257657    14.457524     0.351283
  H     -1.255000    14.471284     0.200000
  H     11.019411     9.828867    -0.448717
  H      9.775000    12.011772    -0.600000
  H     -4.629411     1.238937     1.551283
  H     -3.371755    -0.939388     1.248717
  H     -1.255000     2.173724    -1.600000
  H      1.255000    -2.173724    -1.600000
  H      5.515000     2.173724    -1.600000
  H      3.005000    -2.173724    -1.600000
  H      8.867955    -3.661413     0.983569
  H      7.645000    -3.403480    -1.600000
  H      5.135000    -3.403480    -1.600000
  H      4.097102    -3.805923     0.602151
  H      3.045146    -5.218637     0.272458
  H      5.523100    -9.510581     0.272458
  H      1.263100    -5.246492    -0.438654
  H     -1.214854    -9.538436    -0.438654
  H      0.347955    -3.717123    -1.149765
  H     -4.607955    -3.717123    -1.149765
  H     -3.344854     0.930143    -0.983569
  H     -4.607955    -1.257611    -1.505320
  H      3.385000     3.403480    -1.600000
  H      0.875000     3.403480    -1.600000
  H      8.867955    -6.120926     0.628013
  H      7.645000    -8.322504     0.888889
  H      0.875000   -10.782016     0.177778
  H      3.393100   -10.740337    -0.083098
  H     -4.640000    -6.148780    -0.533333
  H     -3.344854    -8.308679    -0.794209
