156
CC-infinitene <coronene|6,2,2,6,2,2>(-4) EHMO: -149.05502264
  C      3.550000     3.689268     1.600000
  C      2.840000     4.919024     1.600000
  C      1.420000     4.919024     1.200000
  C      0.710000     3.689268     1.200000
  C      1.420000     2.459512    -1.600000
  C      2.840000     2.459512    -1.600000
  C      0.710000     6.148780     0.800000
  C     -0.710000     6.148780     0.800000
  C     -1.420000     4.919024     0.400000
  C     -0.710000     3.689268     0.400000
  C     -2.840000     4.919024     0.000000
  C     -3.550000     3.689268     0.000000
  C     -2.840000     2.459512    -0.400000
  C     -1.420000     2.459512    -0.400000
  C     -0.710000     1.229756    -1.200000
  C     -3.550000     1.229756    -0.800000
  C     -2.840000     0.000000    -0.800000
  C     -1.420000     0.000000    -1.200000
  C      1.420000    -0.000000    -1.600000
  C      0.710000     1.229756    -1.600000
  C     -0.710000    -1.229756    -1.600000
  C      0.710000    -1.229756    -1.600000
  C      3.550000     1.229756    -1.600000
  C      2.840000     0.000000    -1.600000
  C     -7.100000     0.000000     1.600000
  C     -7.810000     1.229756     1.600000
  C     -9.230000     1.229756     1.600000
  C     -9.940000     0.000000     1.600000
  C     -9.230000    -1.229756     1.600000
  C     -7.810000    -1.229756     1.600000
  C      5.680000     0.000000    -1.386667
  C      4.970000     1.229756    -1.386667
  C      3.550000     1.229756     1.600000
  C      2.840000     0.000000     1.600000
  C      3.550000    -1.229756    -1.386667
  C      4.970000    -1.229756    -1.386667
  C      7.810000    -3.689268    -0.960000
  C      7.100000    -2.459512    -1.173333
  C      5.680000    -2.459512    -1.173333
  C      4.970000    -3.689268    -0.960000
  C      5.680000    -4.919024    -0.960000
  C      7.100000    -4.919024    -0.960000
  C      5.680000    -7.378536    -0.746667
  C      4.970000    -6.148780    -0.746667
  C      3.550000    -6.148780    -0.533333
  C      2.840000    -7.378536    -0.533333
  C      3.550000    -8.608293    -0.533333
  C      4.970000    -8.608293    -0.533333
  C     -7.100000    -7.378536     0.533333
  C     -7.810000    -6.148780     0.746667
  C     -9.230000    -6.148780     0.746667
  C     -9.940000    -7.378536     0.746667
  C     -9.230000    -8.608293     0.746667
  C     -7.810000    -8.608293     0.533333
  C     -9.230000    -3.689268     1.173333
  C     -9.940000    -2.459512     1.173333
  C    -11.360000    -2.459512     1.173333
  C    -12.070000    -3.689268     1.173333
  C    -11.360000    -4.919024     0.960000
  C     -9.940000    -4.919024     0.960000
  C     -2.840000     0.000000     1.600000
  C     -3.550000     1.229756     1.600000
  C     -4.970000     1.229756     1.600000
  C     -5.680000     0.000000     1.600000
  C     -4.970000    -1.229756     1.600000
  C     -3.550000    -1.229756     1.600000
  C      1.420000     0.000000     1.600000
  C      0.710000     1.229756     1.600000
  C     -0.710000     1.229756     1.600000
  C     -1.420000     0.000000     1.600000
  C     -0.710000    -1.229756     1.600000
  C      0.710000    -1.229756     1.600000
  C      1.420000    -7.378536    -0.320000
  C      0.710000    -6.148780    -0.106667
  C     -0.710000    -6.148780    -0.106667
  C     -1.420000    -7.378536    -0.106667
  C     -0.710000    -8.608293    -0.106667
  C      0.710000    -8.608293    -0.320000
  C     -2.840000    -7.378536     0.106667
  C     -3.550000    -6.148780     0.320000
  C     -4.970000    -6.148780     0.320000
  C     -5.680000    -7.378536     0.320000
  C     -4.970000    -8.608293     0.320000
  C     -3.550000    -8.608293     0.106667
  C    -11.360000     0.000000     1.386667
  C    -12.070000    -1.229756     1.386667
  C      2.840000     2.459512     1.600000
  C      1.420000     2.459512     1.600000
  C      7.810000    -1.229756    -1.173333
  C      7.100000    -0.000000    -1.173333
  C      7.810000    -6.148780    -0.746667
  C      7.100000    -7.378536    -0.746667
  C     -7.100000    -9.838049     0.533333
  C     -5.680000    -9.838049     0.533333
  C    -12.070000    -6.148780     0.960000
  C    -11.360000    -7.378536     0.960000
  C     -5.680000     2.459512     1.600000
  C     -7.100000     2.459512     1.600000
  C     -1.420000     2.459512     1.600000
  C     -2.840000     2.459512     1.600000
  C      1.420000    -9.838049    -0.320000
  C      2.840000    -9.838049    -0.320000
  C     -2.840000    -9.838049     0.106667
  C     -1.420000    -9.838049     0.106667
  H      4.640000     3.689268     1.600000
  H      3.334983     5.845793     1.890156
  H      0.875000     3.403480    -1.600000
  H      3.385000     3.403480    -1.600000
  H      1.265114     7.040833     0.509844
  H     -1.265114     7.040833     1.090156
  H     -3.334983     5.845793    -0.290156
  H     -4.633401     3.689522     0.119759
  H     -4.600097     1.264472    -1.090156
  H     -3.334983    -0.926769    -0.509844
  H     -1.265114    -2.121809    -1.890156
  H      1.255000    -2.173724    -1.600000
  H     -9.775000     2.173724     1.600000
  H     -7.265000    -2.173724     1.600000
  H      5.499971     2.168529    -1.225619
  H      4.640000     1.229756     1.600000
  H      3.385000    -0.943968     1.600000
  H      3.001984    -2.158111    -1.225619
  H      8.887987    -3.678850    -0.798953
  H      3.892013    -3.678850    -0.798953
  H      3.020029    -5.210007    -0.372286
  H      5.518016    -9.536647    -0.372286
  H     -7.261984    -5.220426     0.907714
  H     -9.759971    -9.547065     0.907714
  H     -8.152013    -3.699686     1.334381
  H    -13.147987    -3.699686     1.334381
  H     -5.515000    -2.173724     1.600000
  H     -3.005000    -2.173724     1.600000
  H     -1.255000    -2.173724     1.600000
  H      1.255000    -2.173724     1.600000
  H      1.258016    -5.220426     0.054381
  H     -1.255000    -5.204813    -0.106667
  H     -3.001984    -5.220426     0.481047
  H     -5.515000    -5.204813     0.320000
  H    -11.889971     0.938773     1.225619
  H    -13.147987    -1.240174     1.547714
  H      8.900000    -1.229756    -1.173333
  H      7.629971     0.938773    -1.012286
  H      8.887987    -6.138362    -0.585619
  H      7.645000    -8.322504    -0.746667
  H     -7.645000   -10.782016     0.533333
  H     -5.131984   -10.766403     0.694381
  H    -13.160000    -6.148780     0.960000
  H    -11.889971    -8.317309     1.121047
  H     -5.186684     3.412513     1.791128
  H     -7.645000     3.403480     1.600000
  H     -0.875000     3.403480     1.600000
  H     -3.385000     3.403480     1.600000
  H      0.875000   -10.782016    -0.320000
  H      3.388016   -10.766403    -0.158953
  H     -3.385000   -10.782016     0.106667
  H     -0.871984   -10.766403     0.267714
