132
CC-infinitene <coronene|2,2,4,2,2,4>(-2) EHMO: -126.05178722
  C      3.550000     3.689268     0.960000
  C      2.840000     4.919024     0.960000
  C      1.420000     4.919024     0.640000
  C      0.710000     3.689268     0.640000
  C      1.420000     2.459512     1.280000
  C      2.840000     2.459512     1.280000
  C      0.710000     6.148780     0.320000
  C     -0.710000     6.148780     0.320000
  C     -1.420000     4.919024     0.000000
  C     -0.710000     3.689268     0.000000
  C     -2.840000     4.919024    -0.320000
  C     -3.550000     3.689268    -0.320000
  C     -2.840000     2.459512    -0.640000
  C     -1.420000     2.459512    -0.640000
  C     -0.710000     1.229756    -1.280000
  C     -3.550000     1.229756    -0.960000
  C     -2.840000     0.000000    -0.960000
  C     -1.420000     0.000000    -1.280000
  C      1.420000    -0.000000    -1.600000
  C      0.710000     1.229756    -1.600000
  C     -0.710000    -1.229756    -1.600000
  C      0.710000    -1.229756    -1.600000
  C      3.550000     1.229756     1.600000
  C      2.840000     0.000000     1.600000
  C     -2.840000    -0.000000     1.600000
  C     -3.550000     1.229756     1.600000
  C     -4.970000     1.229756     1.600000
  C     -5.680000    -0.000000     1.600000
  C     -4.970000    -1.229756     1.600000
  C     -3.550000    -1.229756     1.600000
  C      1.420000    -0.000000     1.600000
  C      0.710000     1.229756     1.600000
  C     -0.710000     1.229756     1.600000
  C     -1.420000    -0.000000     1.600000
  C     -0.710000    -1.229756     1.600000
  C      0.710000    -1.229756     1.600000
  C      3.550000    -3.689268    -1.142857
  C      2.840000    -2.459512    -1.371429
  C      1.420000    -2.459512    -1.371429
  C      0.710000    -3.689268    -1.142857
  C      1.420000    -4.919024    -1.142857
  C      2.840000    -4.919024    -1.142857
  C     -0.710000   -11.067805    -0.457143
  C     -1.420000    -9.838049    -0.457143
  C     -2.840000    -9.838049    -0.228571
  C     -3.550000   -11.067805    -0.228571
  C     -2.840000   -12.297561    -0.228571
  C     -1.420000   -12.297561    -0.228571
  C     -4.970000   -11.067805     0.000000
  C     -5.680000    -9.838049     0.228571
  C     -7.100000    -9.838049     0.228571
  C     -7.810000   -11.067805     0.228571
  C     -7.100000   -12.297561     0.228571
  C     -5.680000   -12.297561     0.000000
  C     -7.100000    -7.378536     0.685714
  C     -7.810000    -6.148780     0.685714
  C     -9.230000    -6.148780     0.685714
  C     -9.940000    -7.378536     0.685714
  C     -9.230000    -8.608293     0.457143
  C     -7.810000    -8.608293     0.457143
  C      1.420000    -7.378536    -0.914286
  C      0.710000    -6.148780    -0.914286
  C     -0.710000    -6.148780    -0.685714
  C     -1.420000    -7.378536    -0.685714
  C     -0.710000    -8.608293    -0.685714
  C      0.710000    -8.608293    -0.685714
  C     -4.970000    -3.689268     1.142857
  C     -5.680000    -2.459512     1.142857
  C     -7.100000    -2.459512     1.142857
  C     -7.810000    -3.689268     0.914286
  C     -7.100000    -4.919024     0.914286
  C     -5.680000    -4.919024     1.142857
  C     -7.100000     0.000000     1.371429
  C     -7.810000    -1.229756     1.371429
  C     -1.420000     2.459512     1.600000
  C     -2.840000     2.459512     1.600000
  C      3.550000    -1.229756    -1.371429
  C      2.840000    -0.000000    -1.371429
  C      1.420000    -9.838049    -0.457143
  C      0.710000   -11.067805    -0.457143
  C     -4.970000   -13.527317     0.000000
  C     -3.550000   -13.527317     0.000000
  C     -9.940000    -9.838049     0.457143
  C     -9.230000   -11.067805     0.457143
  C      3.550000    -6.148780    -0.914286
  C      2.840000    -7.378536    -0.914286
  C     -9.230000    -3.689268     0.914286
  C     -9.940000    -4.919024     0.914286
  H      4.613734     3.666453     0.723254
  H      3.352108     5.851653     1.196746
  H      1.261626     7.058593     0.083254
  H     -1.261626     7.058593     0.556746
  H     -3.352108     5.851653    -0.556746
  H     -4.613734     3.666453    -0.083254
  H     -4.613734     1.252572    -1.196746
  H     -3.352108    -0.932629    -0.723254
  H      1.222108     2.162385    -1.836746
  H     -1.261626    -2.139569    -1.836746
  H      4.613734     1.252572     1.836746
  H      3.385000    -0.943968     1.600000
  H     -5.515000     2.173724     1.600000
  H     -3.005000    -2.173724     1.600000
  H     -1.255000    -2.173724     1.600000
  H      1.255000    -2.173724     1.600000
  H      4.626257    -3.677347    -0.970725
  H     -0.366257    -3.677347    -0.970725
  H     -3.367804    -8.900023    -0.056439
  H     -0.871548   -13.223666    -0.056439
  H     -5.131548    -8.911944     0.400704
  H     -7.627804   -13.235587     0.400704
  H     -6.023743    -7.390457     0.857847
  H    -11.016257    -7.390457     0.857847
  H     -1.237804    -5.210754    -0.513582
  H     -2.510000    -7.378536    -0.685714
  H     -3.880000    -3.689268     1.142857
  H     -5.152196    -5.857050     1.314990
  H     -7.627804     0.938026     1.199296
  H     -8.886257    -1.241677     1.543561
  H     -0.875000     3.403480     1.600000
  H     -3.385000     3.403480     1.600000
  H      4.640000    -1.229756    -1.371429
  H      3.367804     0.938026    -1.199296
  H      2.496257    -9.826128    -0.285010
  H      1.255000   -12.011772    -0.457143
  H     -5.515000   -14.471284     0.000000
  H     -3.001548   -14.453422     0.172133
  H    -11.030000    -9.838049     0.457143
  H     -9.757804   -12.005831     0.629275
  H      4.626257    -6.136859    -0.742153
  H      3.385000    -8.322504    -0.914286
  H     -9.775000    -2.745301     0.914286
  H    -11.016257    -4.930945     1.086418
