132
CC-infinitene <coronene|2,2,4,2,2,4>(0) EHMO: -126.05179338
  C      3.550000     3.689268     1.600000
  C      2.840000     4.919024     1.600000
  C      1.420000     4.919024     1.200000
  C      0.710000     3.689268     1.200000
  C      1.420000     2.459512    -1.600000
  C      2.840000     2.459512    -1.600000
  C      0.710000     6.148780     0.800000
  C     -0.710000     6.148780     0.800000
  C     -1.420000     4.919024     0.400000
  C     -0.710000     3.689268     0.400000
  C     -2.840000     4.919024     0.000000
  C     -3.550000     3.689268     0.000000
  C     -2.840000     2.459512    -0.400000
  C     -1.420000     2.459512    -0.400000
  C     -0.710000     1.229756    -1.200000
  C     -3.550000     1.229756    -0.800000
  C     -2.840000     0.000000    -0.800000
  C     -1.420000     0.000000    -1.200000
  C      1.420000    -0.000000    -1.600000
  C      0.710000     1.229756    -1.600000
  C     -0.710000    -1.229756    -1.600000
  C      0.710000    -1.229756    -1.600000
  C      3.550000     1.229756    -1.600000
  C      2.840000     0.000000    -1.600000
  C      1.420000    -0.000000     1.600000
  C      0.710000     1.229756     1.600000
  C     -0.710000     1.229756     1.600000
  C     -1.420000    -0.000000     1.600000
  C     -0.710000    -1.229756     1.600000
  C      0.710000    -1.229756     1.600000
  C      5.680000    -0.000000    -1.386667
  C      4.970000     1.229756    -1.386667
  C      3.550000     1.229756     1.600000
  C      2.840000    -0.000000     1.600000
  C      3.550000    -1.229756    -1.386667
  C      4.970000    -1.229756    -1.386667
  C      7.810000    -3.689268    -0.960000
  C      7.100000    -2.459512    -1.173333
  C      5.680000    -2.459512    -1.173333
  C      4.970000    -3.689268    -0.960000
  C      5.680000    -4.919024    -0.960000
  C      7.100000    -4.919024    -0.960000
  C      3.550000   -11.067805    -0.320000
  C      2.840000    -9.838049    -0.320000
  C      1.420000    -9.838049    -0.106667
  C      0.710000   -11.067805    -0.106667
  C      1.420000   -12.297561    -0.106667
  C      2.840000   -12.297561    -0.106667
  C     -0.710000   -11.067805     0.106667
  C     -1.420000    -9.838049     0.320000
  C     -2.840000    -9.838049     0.320000
  C     -3.550000   -11.067805     0.320000
  C     -2.840000   -12.297561     0.320000
  C     -1.420000   -12.297561     0.106667
  C     -2.840000    -7.378536     0.746667
  C     -3.550000    -6.148780     0.746667
  C     -4.970000    -6.148780     0.746667
  C     -5.680000    -7.378536     0.746667
  C     -4.970000    -8.608293     0.533333
  C     -3.550000    -8.608293     0.533333
  C      5.680000    -7.378536    -0.746667
  C      4.970000    -6.148780    -0.746667
  C      3.550000    -6.148780    -0.533333
  C      2.840000    -7.378536    -0.533333
  C      3.550000    -8.608293    -0.533333
  C      4.970000    -8.608293    -0.533333
  C     -0.710000    -3.689268     1.173333
  C     -1.420000    -2.459512     1.173333
  C     -2.840000    -2.459512     1.173333
  C     -3.550000    -3.689268     0.960000
  C     -2.840000    -4.919024     0.960000
  C     -1.420000    -4.919024     1.173333
  C     -2.840000     0.000000     1.386667
  C     -3.550000    -1.229756     1.386667
  C      2.840000     2.459512     1.600000
  C      1.420000     2.459512     1.600000
  C      7.810000    -1.229756    -1.173333
  C      7.100000    -0.000000    -1.173333
  C      5.680000    -9.838049    -0.320000
  C      4.970000   -11.067805    -0.320000
  C     -0.710000   -13.527317     0.106667
  C      0.710000   -13.527317     0.106667
  C     -5.680000    -9.838049     0.533333
  C     -4.970000   -11.067805     0.533333
  C      7.810000    -6.148780    -0.746667
  C      7.100000    -7.378536    -0.746667
  C     -4.970000    -3.689268     0.960000
  C     -5.680000    -4.919024     0.960000
  H      4.640000     3.689268     1.600000
  H      3.334983     5.845793     1.890156
  H      0.875000     3.403480    -1.600000
  H      3.385000     3.403480    -1.600000
  H      1.265114     7.040833     0.509844
  H     -1.265114     7.040833     1.090156
  H     -3.334983     5.845793    -0.290156
  H     -4.600097     3.654552     0.290156
  H     -4.600097     1.264472    -1.090156
  H     -3.334983    -0.926769    -0.509844
  H     -1.265114    -2.121809    -1.890156
  H      1.255000    -2.173724    -1.600000
  H     -1.255000     2.173724     1.600000
  H      1.255000    -2.173724     1.600000
  H      5.499971     2.168529    -1.225619
  H      4.640000     1.229756     1.600000
  H      3.385000    -0.943968     1.600000
  H      3.001984    -2.158111    -1.225619
  H      8.887987    -3.678850    -0.798953
  H      3.892013    -3.678850    -0.798953
  H      0.890029    -8.899276     0.054381
  H      3.388016   -13.225915     0.054381
  H     -0.871984    -8.909694     0.481047
  H     -3.369971   -13.236334     0.481047
  H     -1.762013    -7.388955     0.907714
  H     -6.757987    -7.388955     0.907714
  H      3.020029    -5.210007    -0.372286
  H      1.750000    -7.378536    -0.533333
  H      0.380000    -3.689268     1.173333
  H     -0.890029    -5.857797     1.334381
  H     -3.369971     0.938773     1.225619
  H     -4.627987    -1.240174     1.547714
  H      8.900000    -1.229756    -1.173333
  H      7.629971     0.938773    -1.012286
  H      6.757987    -9.827630    -0.158953
  H      5.515000   -12.011772    -0.320000
  H     -1.255000   -14.471284     0.106667
  H      1.258016   -14.455672     0.267714
  H     -6.770000    -9.838049     0.533333
  H     -5.499971   -12.006578     0.694381
  H      8.887987    -6.138362    -0.585619
  H      7.645000    -8.322504    -0.746667
  H     -5.515000    -2.745301     0.960000
  H     -6.757987    -4.929443     1.121047
