156
CC-infinitene <coronene|4,2,4,4,2,4>(-2) EHMO: -149.03426760
  C      3.550000     3.689268     1.600000
  C      2.840000     4.919024     1.600000
  C      1.420000     4.919024     1.200000
  C      0.710000     3.689268     1.200000
  C      1.420000     2.459512    -1.600000
  C      2.840000     2.459512    -1.600000
  C      0.710000     6.148780     0.800000
  C     -0.710000     6.148780     0.800000
  C     -1.420000     4.919024     0.400000
  C     -0.710000     3.689268     0.400000
  C     -2.840000     4.919024     0.000000
  C     -3.550000     3.689268     0.000000
  C     -2.840000     2.459512    -0.400000
  C     -1.420000     2.459512    -0.400000
  C     -0.710000     1.229756    -1.200000
  C     -3.550000     1.229756    -0.800000
  C     -2.840000     0.000000    -0.800000
  C     -1.420000     0.000000    -1.200000
  C      1.420000    -0.000000    -1.600000
  C      0.710000     1.229756    -1.600000
  C     -0.710000    -1.229756    -1.600000
  C      0.710000    -1.229756    -1.600000
  C      3.550000     1.229756    -1.600000
  C      2.840000     0.000000    -1.600000
  C     -2.840000    -0.000000     1.600000
  C     -3.550000     1.229756     1.600000
  C     -4.970000     1.229756     1.600000
  C     -5.680000    -0.000000     1.600000
  C     -4.970000    -1.229756     1.600000
  C     -3.550000    -1.229756     1.600000
  C      5.680000    -0.000000    -1.411765
  C      4.970000     1.229756    -1.411765
  C      3.550000     1.229756     1.600000
  C      2.840000    -0.000000     1.600000
  C      3.550000    -1.229756    -1.411765
  C      4.970000    -1.229756    -1.411765
  C      7.810000    -3.689268    -1.035294
  C      7.100000    -2.459512    -1.223529
  C      5.680000    -2.459512    -1.223529
  C      4.970000    -3.689268    -1.035294
  C      5.680000    -4.919024    -1.035294
  C      7.100000    -4.919024    -1.035294
  C      3.550000   -11.067805    -0.470588
  C      2.840000    -9.838049    -0.470588
  C      1.420000    -9.838049    -0.282353
  C      0.710000   -11.067805    -0.282353
  C      1.420000   -12.297561    -0.282353
  C      2.840000   -12.297561    -0.282353
  C     -4.970000   -11.067805     0.282353
  C     -5.680000    -9.838049     0.470588
  C     -7.100000    -9.838049     0.470588
  C     -7.810000   -11.067805     0.470588
  C     -7.100000   -12.297561     0.470588
  C     -5.680000   -12.297561     0.282353
  C     -7.100000    -7.378536     0.847059
  C     -7.810000    -6.148780     0.847059
  C     -9.230000    -6.148780     0.847059
  C     -9.940000    -7.378536     0.847059
  C     -9.230000    -8.608293     0.658824
  C     -7.810000    -8.608293     0.658824
  C      1.420000    -0.000000     1.600000
  C      0.710000     1.229756     1.600000
  C     -0.710000     1.229756     1.600000
  C     -1.420000    -0.000000     1.600000
  C     -0.710000    -1.229756     1.600000
  C      0.710000    -1.229756     1.600000
  C      5.680000    -7.378536    -0.847059
  C      4.970000    -6.148780    -0.847059
  C      3.550000    -6.148780    -0.658824
  C      2.840000    -7.378536    -0.658824
  C      3.550000    -8.608293    -0.658824
  C      4.970000    -8.608293    -0.658824
  C     -0.710000   -11.067805    -0.094118
  C     -1.420000    -9.838049     0.094118
  C     -2.840000    -9.838049     0.094118
  C     -3.550000   -11.067805     0.094118
  C     -2.840000   -12.297561     0.094118
  C     -1.420000   -12.297561    -0.094118
  C     -4.970000    -3.689268     1.223529
  C     -5.680000    -2.459512     1.223529
  C     -7.100000    -2.459512     1.223529
  C     -7.810000    -3.689268     1.035294
  C     -7.100000    -4.919024     1.035294
  C     -5.680000    -4.919024     1.223529
  C     -7.100000     0.000000     1.411765
  C     -7.810000    -1.229756     1.411765
  C      2.840000     2.459512     1.600000
  C      1.420000     2.459512     1.600000
  C      7.810000    -1.229756    -1.223529
  C      7.100000    -0.000000    -1.223529
  C      5.680000    -9.838049    -0.470588
  C      4.970000   -11.067805    -0.470588
  C     -4.970000   -13.527317     0.282353
  C     -3.550000   -13.527317     0.282353
  C     -9.940000    -9.838049     0.658824
  C     -9.230000   -11.067805     0.658824
  C     -1.420000     2.459512     1.600000
  C     -2.840000     2.459512     1.600000
  C      7.810000    -6.148780    -0.847059
  C      7.100000    -7.378536    -0.847059
  C     -0.710000   -13.527317    -0.094118
  C      0.710000   -13.527317    -0.094118
  C     -9.230000    -3.689268     1.035294
  C     -9.940000    -4.919024     1.035294
  H      4.640000     3.689268     1.600000
  H      3.334983     5.845793     1.890156
  H      0.875000     3.403480    -1.600000
  H      3.385000     3.403480    -1.600000
  H      1.265114     7.040833     0.509844
  H     -1.265114     7.040833     1.090156
  H     -3.334983     5.845793    -0.290156
  H     -4.600097     3.654552     0.290156
  H     -4.600097     1.264472    -1.090156
  H     -3.334983    -0.926769    -0.509844
  H     -1.265114    -2.121809    -1.890156
  H      1.255000    -2.173724    -1.600000
  H     -5.515000     2.173724     1.600000
  H     -3.005000    -2.173724     1.600000
  H      5.503240     2.169657    -1.269144
  H      4.640000     1.229756     1.600000
  H      3.385000    -0.943968     1.600000
  H      3.002642    -2.161506    -1.269144
  H      8.890598    -3.681117    -0.892674
  H      3.889402    -3.681117    -0.892674
  H      0.886760    -8.898147    -0.139733
  H      3.387358   -13.229311    -0.139733
  H     -5.132642    -8.906298     0.613209
  H     -7.633240   -13.237462     0.613209
  H     -6.019402    -7.386687     0.989679
  H    -11.020598    -7.386687     0.989679
  H     -1.255000    -2.173724     1.600000
  H      1.255000    -2.173724     1.600000
  H      3.016760    -5.208879    -0.516203
  H      1.750000    -7.378536    -0.658824
  H     -0.872642    -8.906298     0.236738
  H     -3.385000    -8.894081     0.094118
  H     -3.880000    -3.689268     1.223529
  H     -5.146760    -5.858925     1.366150
  H     -7.633240     0.939901     1.269144
  H     -8.890598    -1.237907     1.554385
  H      8.900000    -1.229756    -1.223529
  H      7.633240     0.939901    -1.080909
  H      6.760598    -9.829898    -0.327968
  H      5.515000   -12.011772    -0.470588
  H     -5.515000   -14.471284     0.282353
  H     -3.002642   -14.459067     0.424973
  H    -11.030000    -9.838049     0.658824
  H     -9.763240   -12.007706     0.801444
  H     -0.875000     3.403480     1.600000
  H     -3.385000     3.403480     1.600000
  H      8.890598    -6.140630    -0.704438
  H      7.645000    -8.322504    -0.847059
  H     -1.255000   -14.471284    -0.094118
  H      1.257358   -14.459067     0.048503
  H     -9.775000    -2.745301     1.035294
  H    -11.020598    -4.927175     1.177915
