156
CC-infinitene <coronene|4,2,4,4,2,4>(0) EHMO: -149.03790024
  C      3.550000     3.689268     1.600000
  C      2.840000     4.919024     1.600000
  C      1.420000     4.919024     1.200000
  C      0.710000     3.689268     1.200000
  C      1.420000     2.459512    -1.600000
  C      2.840000     2.459512    -1.600000
  C      0.710000     6.148780     0.800000
  C     -0.710000     6.148780     0.800000
  C     -1.420000     4.919024     0.400000
  C     -0.710000     3.689268     0.400000
  C     -2.840000     4.919024     0.000000
  C     -3.550000     3.689268     0.000000
  C     -2.840000     2.459512    -0.400000
  C     -1.420000     2.459512    -0.400000
  C     -0.710000     1.229756    -1.200000
  C     -3.550000     1.229756    -0.800000
  C     -2.840000     0.000000    -0.800000
  C     -1.420000     0.000000    -1.200000
  C      1.420000    -0.000000    -1.600000
  C      0.710000     1.229756    -1.600000
  C     -0.710000    -1.229756    -1.600000
  C      0.710000    -1.229756    -1.600000
  C      3.550000     1.229756    -1.600000
  C      2.840000     0.000000    -1.600000
  C      1.420000    -0.000000     1.600000
  C      0.710000     1.229756     1.600000
  C     -0.710000     1.229756     1.600000
  C     -1.420000    -0.000000     1.600000
  C     -0.710000    -1.229756     1.600000
  C      0.710000    -1.229756     1.600000
  C      9.940000    -0.000000    -1.094737
  C      9.230000     1.229756    -1.094737
  C      7.810000     1.229756    -1.263158
  C      7.100000    -0.000000    -1.263158
  C      7.810000    -1.229756    -1.094737
  C      9.230000    -1.229756    -1.094737
  C     12.070000    -3.689268    -0.757895
  C     11.360000    -2.459512    -0.926316
  C      9.940000    -2.459512    -0.926316
  C      9.230000    -3.689268    -0.757895
  C      9.940000    -4.919024    -0.757895
  C     11.360000    -4.919024    -0.757895
  C      7.810000   -11.067805    -0.252632
  C      7.100000    -9.838049    -0.252632
  C      5.680000    -9.838049    -0.084211
  C      4.970000   -11.067805    -0.084211
  C      5.680000   -12.297561    -0.084211
  C      7.100000   -12.297561    -0.084211
  C     -0.710000   -11.067805     0.421053
  C     -1.420000    -9.838049     0.589474
  C     -2.840000    -9.838049     0.589474
  C     -3.550000   -11.067805     0.589474
  C     -2.840000   -12.297561     0.589474
  C     -1.420000   -12.297561     0.421053
  C     -2.840000    -7.378536     0.926316
  C     -3.550000    -6.148780     0.926316
  C     -4.970000    -6.148780     0.926316
  C     -5.680000    -7.378536     0.926316
  C     -4.970000    -8.608293     0.757895
  C     -3.550000    -8.608293     0.757895
  C      5.680000    -0.000000    -1.431579
  C      4.970000     1.229756    -1.431579
  C      3.550000     1.229756     1.600000
  C      2.840000    -0.000000     1.600000
  C      3.550000    -1.229756    -1.431579
  C      4.970000    -1.229756    -1.431579
  C      9.940000    -7.378536    -0.589474
  C      9.230000    -6.148780    -0.589474
  C      7.810000    -6.148780    -0.421053
  C      7.100000    -7.378536    -0.421053
  C      7.810000    -8.608293    -0.421053
  C      9.230000    -8.608293    -0.421053
  C      3.550000   -11.067805     0.084211
  C      2.840000    -9.838049     0.252632
  C      1.420000    -9.838049     0.252632
  C      0.710000   -11.067805     0.252632
  C      1.420000   -12.297561     0.252632
  C      2.840000   -12.297561     0.084211
  C     -0.710000    -3.689268     1.263158
  C     -1.420000    -2.459512     1.263158
  C     -2.840000    -2.459512     1.263158
  C     -3.550000    -3.689268     1.094737
  C     -2.840000    -4.919024     1.094737
  C     -1.420000    -4.919024     1.263158
  C     -2.840000     0.000000     1.431579
  C     -3.550000    -1.229756     1.431579
  C      7.100000     2.459512    -1.263158
  C      5.680000     2.459512    -1.263158
  C     12.070000    -1.229756    -0.926316
  C     11.360000    -0.000000    -0.926316
  C      9.940000    -9.838049    -0.252632
  C      9.230000   -11.067805    -0.252632
  C     -0.710000   -13.527317     0.421053
  C      0.710000   -13.527317     0.421053
  C     -5.680000    -9.838049     0.757895
  C     -4.970000   -11.067805     0.757895
  C      2.840000     2.459512     1.600000
  C      1.420000     2.459512     1.600000
  C     12.070000    -6.148780    -0.589474
  C     11.360000    -7.378536    -0.589474
  C      3.550000   -13.527317     0.084211
  C      4.970000   -13.527317     0.084211
  C     -4.970000    -3.689268     1.094737
  C     -5.680000    -4.919024     1.094737
  H      4.640000     3.689268     1.600000
  H      3.334983     5.845793     1.890156
  H      0.875000     3.403480    -1.600000
  H      3.385000     3.403480    -1.600000
  H      1.265114     7.040833     0.509844
  H     -1.265114     7.040833     1.090156
  H     -3.334983     5.845793    -0.290156
  H     -4.600097     3.654552     0.290156
  H     -4.600097     1.264472    -1.090156
  H     -3.334983    -0.926769    -0.509844
  H     -1.265114    -2.121809    -1.890156
  H      1.255000    -2.173724    -1.600000
  H     -1.255000     2.173724     1.600000
  H      1.255000    -2.173724     1.600000
  H      9.765553     2.170456    -0.966800
  H      7.263107    -2.163908    -0.966800
  H     13.152446    -3.682721    -0.629958
  H      8.147554    -3.682721    -0.629958
  H      5.144447    -8.897349     0.043726
  H      7.646893   -13.231713     0.043726
  H     -0.873107    -8.903897     0.717410
  H     -3.375553   -13.238260     0.717410
  H     -1.757554    -7.385084     1.054252
  H     -6.762446    -7.385084     1.054252
  H      4.640000     1.229756     1.600000
  H      3.385000    -0.943968     1.600000
  H      3.003107    -2.163908    -1.303642
  H      5.515000    -2.173724    -1.431579
  H      7.274447    -5.208081    -0.293116
  H      6.010000    -7.378536    -0.421053
  H      3.386893    -8.903897     0.380568
  H      0.875000    -8.894081     0.252632
  H      0.380000    -3.689268     1.263158
  H     -0.884447    -5.859724     1.391095
  H     -3.375553     0.940700     1.303642
  H     -4.632446    -1.236304     1.559516
  H      7.645000     3.403480    -1.263158
  H      5.133107     3.393664    -1.135221
  H     13.160000    -1.229756    -0.926316
  H     11.895553     0.940700    -0.798379
  H     11.022446    -9.831501    -0.124695
  H      9.775000   -12.011772    -0.252632
  H     -1.255000   -14.471284     0.421053
  H      1.256893   -14.461469     0.548989
  H     -6.770000    -9.838049     0.757895
  H     -5.505553   -12.008504     0.885831
  H     13.152446    -6.142233    -0.461537
  H     11.905000    -8.322504    -0.589474
  H      3.005000   -14.471284     0.084211
  H      5.516893   -14.461469     0.212147
  H     -5.515000    -2.745301     1.094737
  H     -6.762446    -4.925572     1.222673
