156
CC-infinitene <coronene|2,4,4,2,4,4>(-2) EHMO: -149.02560768
  C      3.550000     3.689268     0.960000
  C      2.840000     4.919024     0.960000
  C      1.420000     4.919024     0.640000
  C      0.710000     3.689268     0.640000
  C      1.420000     2.459512     1.280000
  C      2.840000     2.459512     1.280000
  C      0.710000     6.148780     0.320000
  C     -0.710000     6.148780     0.320000
  C     -1.420000     4.919024     0.000000
  C     -0.710000     3.689268     0.000000
  C     -2.840000     4.919024    -0.320000
  C     -3.550000     3.689268    -0.320000
  C     -2.840000     2.459512    -0.640000
  C     -1.420000     2.459512    -0.640000
  C     -0.710000     1.229756    -1.280000
  C     -3.550000     1.229756    -0.960000
  C     -2.840000     0.000000    -0.960000
  C     -1.420000     0.000000    -1.280000
  C      1.420000    -0.000000    -1.600000
  C      0.710000     1.229756    -1.600000
  C     -0.710000    -1.229756    -1.600000
  C      0.710000    -1.229756    -1.600000
  C      3.550000     1.229756     1.600000
  C      2.840000     0.000000     1.600000
  C     -2.840000    -0.000000     1.600000
  C     -3.550000     1.229756     1.600000
  C     -4.970000     1.229756     1.600000
  C     -5.680000    -0.000000     1.600000
  C     -4.970000    -1.229756     1.600000
  C     -3.550000    -1.229756     1.600000
  C      1.420000    -0.000000     1.600000
  C      0.710000     1.229756     1.600000
  C     -0.710000     1.229756     1.600000
  C     -1.420000    -0.000000     1.600000
  C     -0.710000    -1.229756     1.600000
  C      0.710000    -1.229756     1.600000
  C      5.680000    -7.378536    -0.888889
  C      4.970000    -6.148780    -1.066667
  C      3.550000    -6.148780    -1.066667
  C      2.840000    -7.378536    -0.888889
  C      3.550000    -8.608293    -0.888889
  C      4.970000    -8.608293    -0.888889
  C      1.420000   -14.757073    -0.355556
  C      0.710000   -13.527317    -0.355556
  C     -0.710000   -13.527317    -0.177778
  C     -1.420000   -14.757073    -0.177778
  C     -0.710000   -15.986829    -0.177778
  C      0.710000   -15.986829    -0.177778
  C     -2.840000   -14.757073     0.000000
  C     -3.550000   -13.527317     0.177778
  C     -4.970000   -13.527317     0.177778
  C     -5.680000   -14.757073     0.177778
  C     -4.970000   -15.986829     0.177778
  C     -3.550000   -15.986829     0.000000
  C     -7.100000    -7.378536     0.888889
  C     -7.810000    -6.148780     0.888889
  C     -9.230000    -6.148780     0.888889
  C     -9.940000    -7.378536     0.888889
  C     -9.230000    -8.608293     0.711111
  C     -7.810000    -8.608293     0.711111
  C      3.550000    -3.689268    -1.244444
  C      2.840000    -2.459512    -1.422222
  C      1.420000    -2.459512    -1.422222
  C      0.710000    -3.689268    -1.244444
  C      1.420000    -4.919024    -1.244444
  C      2.840000    -4.919024    -1.244444
  C      3.550000   -11.067805    -0.711111
  C      2.840000    -9.838049    -0.711111
  C      1.420000    -9.838049    -0.533333
  C      0.710000   -11.067805    -0.533333
  C      1.420000   -12.297561    -0.533333
  C      2.840000   -12.297561    -0.533333
  C     -4.970000   -11.067805     0.533333
  C     -5.680000    -9.838049     0.533333
  C     -7.100000    -9.838049     0.533333
  C     -7.810000   -11.067805     0.533333
  C     -7.100000   -12.297561     0.355556
  C     -5.680000   -12.297561     0.355556
  C     -4.970000    -3.689268     1.244444
  C     -5.680000    -2.459512     1.244444
  C     -7.100000    -2.459512     1.244444
  C     -7.810000    -3.689268     1.066667
  C     -7.100000    -4.919024     1.066667
  C     -5.680000    -4.919024     1.244444
  C     -7.100000     0.000000     1.422222
  C     -7.810000    -1.229756     1.422222
  C     -1.420000     2.459512     1.600000
  C     -2.840000     2.459512     1.600000
  C      5.680000    -4.919024    -1.066667
  C      4.970000    -3.689268    -1.066667
  C      3.550000   -13.527317    -0.355556
  C      2.840000   -14.757073    -0.355556
  C     -2.840000   -17.216585     0.000000
  C     -1.420000   -17.216585     0.000000
  C     -9.940000    -9.838049     0.711111
  C     -9.230000   -11.067805     0.711111
  C      3.550000    -1.229756    -1.422222
  C      2.840000    -0.000000    -1.422222
  C      5.680000    -9.838049    -0.711111
  C      4.970000   -11.067805    -0.711111
  C     -7.810000   -13.527317     0.355556
  C     -7.100000   -14.757073     0.355556
  C     -9.230000    -3.689268     1.066667
  C     -9.940000    -4.919024     1.066667
  H      4.613734     3.666453     0.723254
  H      3.352108     5.851653     1.196746
  H      1.261626     7.058593     0.083254
  H     -1.261626     7.058593     0.556746
  H     -3.352108     5.851653    -0.556746
  H     -4.613734     3.666453    -0.083254
  H     -4.613734     1.252572    -1.196746
  H     -3.352108    -0.932629    -0.723254
  H      1.222108     2.162385    -1.836746
  H     -1.261626    -2.139569    -1.836746
  H      4.613734     1.252572     1.836746
  H      3.385000    -0.943968     1.600000
  H     -5.515000     2.173724     1.600000
  H     -3.005000    -2.173724     1.600000
  H     -1.255000    -2.173724     1.600000
  H      1.255000    -2.173724     1.600000
  H      6.761597    -7.371253    -0.754004
  H      1.758403    -7.371253    -0.754004
  H     -1.244491   -12.586984    -0.042893
  H      1.257107   -16.919878    -0.042893
  H     -3.002893   -12.594268     0.312663
  H     -5.504491   -16.927162     0.312663
  H     -6.018403    -7.385820     1.023774
  H    -11.021597    -7.385820     1.023774
  H     -0.371597    -3.681984    -1.109560
  H      0.875000    -5.862992    -1.244444
  H      0.885509    -8.897716    -0.398449
  H     -0.380000   -11.067805    -0.533333
  H     -3.888403   -11.075089     0.668218
  H     -5.135000    -8.894081     0.533333
  H     -3.880000    -3.689268     1.244444
  H     -5.145509    -5.859357     1.379329
  H     -7.634491     0.940333     1.287337
  H     -8.891597    -1.237040     1.557107
  H     -0.875000     3.403480     1.600000
  H     -3.385000     3.403480     1.600000
  H      6.770000    -4.919024    -1.066667
  H      5.504491    -2.748935    -0.931782
  H      4.631597   -13.520033    -0.220671
  H      3.385000   -15.701041    -0.355556
  H     -3.385000   -18.160553     0.000000
  H     -0.872893   -18.149634     0.134885
  H    -11.030000    -9.838049     0.711111
  H     -9.764491   -12.008137     0.845996
  H      4.640000    -1.229756    -1.422222
  H      3.374491     0.940333    -1.287337
  H      6.761597    -9.830765    -0.576226
  H      5.515000   -12.011772    -0.711111
  H     -8.900000   -13.527317     0.355556
  H     -7.634491   -15.697406     0.490440
  H     -9.775000    -2.745301     1.066667
  H    -11.021597    -4.926308     1.201551
